MODEL 1
REMARK VINA RESULT:      -1.9      0.000      0.000
REMARK  Name = 2F2
REMARK  2 active torsions:
REMARK  status: ('A' for Active; 'I' for Inactive)
REMARK    1  A    between atoms: C_1  and  O_2
REMARK    2  A    between atoms: O_2  and  C_3
REMARK                            x       y       z     vdW  Elec       q    Type
REMARK                         _______ _______ _______ _____ _____    ______ ____
ROOT
ATOM      1  C   UNL     1     -47.038   2.219  97.249  0.00  0.00    +0.193 C 
ATOM      2  O   UNL     1     -46.335   2.717  96.108  0.00  0.00    -0.386 OA
ATOM      3  C   UNL     1     -45.559   3.888  96.368  0.00  0.00    +0.193 C 
ENDROOT
TORSDOF 0
ENDMDL
MODEL 2
REMARK VINA RESULT:      -1.8      7.090      7.282
REMARK  Name = 2F2
REMARK  2 active torsions:
REMARK  status: ('A' for Active; 'I' for Inactive)
REMARK    1  A    between atoms: C_1  and  O_2
REMARK    2  A    between atoms: O_2  and  C_3
REMARK                            x       y       z     vdW  Elec       q    Type
REMARK                         _______ _______ _______ _____ _____    ______ ____
ROOT
ATOM      1  C   UNL     1     -49.301   4.068 104.252  0.00  0.00    +0.193 C 
ATOM      2  O   UNL     1     -48.314   3.934 103.227  0.00  0.00    -0.386 OA
ATOM      3  C   UNL     1     -48.062   5.139 102.500  0.00  0.00    +0.193 C 
ENDROOT
TORSDOF 0
ENDMDL
MODEL 3
REMARK VINA RESULT:      -1.8      4.405      4.901
REMARK  Name = 2F2
REMARK  2 active torsions:
REMARK  status: ('A' for Active; 'I' for Inactive)
REMARK    1  A    between atoms: C_1  and  O_2
REMARK    2  A    between atoms: O_2  and  C_3
REMARK                            x       y       z     vdW  Elec       q    Type
REMARK                         _______ _______ _______ _____ _____    ______ ____
ROOT
ATOM      1  C   UNL     1     -43.192   4.900  97.672  0.00  0.00    +0.193 C 
ATOM      2  O   UNL     1     -42.805   6.195  97.207  0.00  0.00    -0.386 OA
ATOM      3  C   UNL     1     -42.300   7.055  98.230  0.00  0.00    +0.193 C 
ENDROOT
TORSDOF 0
ENDMDL
MODEL 4
REMARK VINA RESULT:      -1.8      2.076      2.561
REMARK  Name = 2F2
REMARK  2 active torsions:
REMARK  status: ('A' for Active; 'I' for Inactive)
REMARK    1  A    between atoms: C_1  and  O_2
REMARK    2  A    between atoms: O_2  and  C_3
REMARK                            x       y       z     vdW  Elec       q    Type
REMARK                         _______ _______ _______ _____ _____    ______ ____
ROOT
ATOM      1  C   UNL     1     -46.964   2.223  97.259  0.00  0.00    +0.193 C 
ATOM      2  O   UNL     1     -46.698   1.213  98.235  0.00  0.00    -0.386 OA
ATOM      3  C   UNL     1     -45.332   1.152  98.652  0.00  0.00    +0.193 C 
ENDROOT
TORSDOF 0
ENDMDL
MODEL 5
REMARK VINA RESULT:      -1.8      7.039      7.224
REMARK  Name = 2F2
REMARK  2 active torsions:
REMARK  status: ('A' for Active; 'I' for Inactive)
REMARK    1  A    between atoms: C_1  and  O_2
REMARK    2  A    between atoms: O_2  and  C_3
REMARK                            x       y       z     vdW  Elec       q    Type
REMARK                         _______ _______ _______ _____ _____    ______ ____
ROOT
ATOM      1  C   UNL     1     -44.475   8.084 101.852  0.00  0.00    +0.193 C 
ATOM      2  O   UNL     1     -43.986   8.567 100.599  0.00  0.00    -0.386 OA
ATOM      3  C   UNL     1     -42.997   7.729  99.997  0.00  0.00    +0.193 C 
ENDROOT
TORSDOF 0
ENDMDL
MODEL 6
REMARK VINA RESULT:      -1.8      6.379      6.568
REMARK  Name = 2F2
REMARK  2 active torsions:
REMARK  status: ('A' for Active; 'I' for Inactive)
REMARK    1  A    between atoms: C_1  and  O_2
REMARK    2  A    between atoms: O_2  and  C_3
REMARK                            x       y       z     vdW  Elec       q    Type
REMARK                         _______ _______ _______ _____ _____    ______ ____
ROOT
ATOM      1  C   UNL     1     -41.087   4.518  99.308  0.00  0.00    +0.193 C 
ATOM      2  O   UNL     1     -40.578   5.660  98.615  0.00  0.00    -0.386 OA
ATOM      3  C   UNL     1     -41.100   6.906  99.084  0.00  0.00    +0.193 C 
ENDROOT
TORSDOF 0
ENDMDL
MODEL 7
REMARK VINA RESULT:      -1.7      8.838      9.390
REMARK  Name = 2F2
REMARK  2 active torsions:
REMARK  status: ('A' for Active; 'I' for Inactive)
REMARK    1  A    between atoms: C_1  and  O_2
REMARK    2  A    between atoms: O_2  and  C_3
REMARK                            x       y       z     vdW  Elec       q    Type
REMARK                         _______ _______ _______ _____ _____    ______ ____
ROOT
ATOM      1  C   UNL     1     -49.965   4.001 104.402  0.00  0.00    +0.193 C 
ATOM      2  O   UNL     1     -50.593   2.717 104.435  0.00  0.00    -0.386 OA
ATOM      3  C   UNL     1     -51.961   2.748 104.846  0.00  0.00    +0.193 C 
ENDROOT
TORSDOF 0
ENDMDL
MODEL 8
REMARK VINA RESULT:      -1.7      5.098      5.309
REMARK  Name = 2F2
REMARK  2 active torsions:
REMARK  status: ('A' for Active; 'I' for Inactive)
REMARK    1  A    between atoms: C_1  and  O_2
REMARK    2  A    between atoms: O_2  and  C_3
REMARK                            x       y       z     vdW  Elec       q    Type
REMARK                         _______ _______ _______ _____ _____    ______ ____
ROOT
ATOM      1  C   UNL     1     -50.062   5.157  99.431  0.00  0.00    +0.193 C 
ATOM      2  O   UNL     1     -50.567   3.822  99.520  0.00  0.00    -0.386 OA
ATOM      3  C   UNL     1     -50.777   3.193  98.254  0.00  0.00    +0.193 C 
ENDROOT
TORSDOF 0
ENDMDL
MODEL 9
REMARK VINA RESULT:      -1.7     14.969     15.137
REMARK  Name = 2F2
REMARK  2 active torsions:
REMARK  status: ('A' for Active; 'I' for Inactive)
REMARK    1  A    between atoms: C_1  and  O_2
REMARK    2  A    between atoms: O_2  and  C_3
REMARK                            x       y       z     vdW  Elec       q    Type
REMARK                         _______ _______ _______ _____ _____    ______ ____
ROOT
ATOM      1  C   UNL     1     -36.072   4.591 108.285  0.00  0.00    +0.193 C 
ATOM      2  O   UNL     1     -37.199   3.744 108.053  0.00  0.00    -0.386 OA
ATOM      3  C   UNL     1     -38.264   3.923 108.989  0.00  0.00    +0.193 C 
ENDROOT
TORSDOF 0
ENDMDL
