REMARK  Name = ACE
REMARK  1 active torsions:
REMARK  status: ('A' for Active; 'I' for Inactive)
REMARK    1  A    between atoms: C_1  and  C_3
REMARK                            x       y       z     vdW  Elec       q    Type
REMARK                         _______ _______ _______ _____ _____    ______ ____
ROOT
ATOM      1  C   UNL     1      -0.133   0.453   0.000  0.00  0.00    +0.220 C 
ATOM      2  C   UNL     1       1.241  -0.167   0.000  0.00  0.00    +0.082 C 
ATOM      3  O   UNL     1      -1.113  -0.252   0.000  0.00  0.00    -0.301 OA
ENDROOT
TORSDOF 0
