MODEL 1
REMARK VINA RESULT:      -2.8      0.000      0.000
REMARK  Name = ACN
REMARK  2 active torsions:
REMARK  status: ('A' for Active; 'I' for Inactive)
REMARK    1  A    between atoms: C_1  and  C_3
REMARK    2  A    between atoms: C_1  and  C_4
REMARK                            x       y       z     vdW  Elec       q    Type
REMARK                         _______ _______ _______ _____ _____    ______ ____
ROOT
ATOM      1  C   UNL     1     -44.670   8.151 102.227  0.00  0.00    +0.127 C 
ATOM      2  C   UNL     1     -46.018   7.532 102.496  0.00  0.00    +0.085 C 
ATOM      3  C   UNL     1     -43.492   7.798 103.097  0.00  0.00    +0.085 C 
ATOM      4  O   UNL     1     -44.536   8.934 101.317  0.00  0.00    -0.298 OA
ENDROOT
TORSDOF 0
ENDMDL
MODEL 2
REMARK VINA RESULT:      -2.7      8.048      8.157
REMARK  Name = ACN
REMARK  2 active torsions:
REMARK  status: ('A' for Active; 'I' for Inactive)
REMARK    1  A    between atoms: C_1  and  C_3
REMARK    2  A    between atoms: C_1  and  C_4
REMARK                            x       y       z     vdW  Elec       q    Type
REMARK                         _______ _______ _______ _____ _____    ______ ____
ROOT
ATOM      1  C   UNL     1     -46.239   1.556  97.918  0.00  0.00    +0.127 C 
ATOM      2  C   UNL     1     -46.214   2.626  96.857  0.00  0.00    +0.085 C 
ATOM      3  C   UNL     1     -45.010   1.287  98.746  0.00  0.00    +0.085 C 
ATOM      4  O   UNL     1     -47.243   0.910  98.100  0.00  0.00    -0.298 OA
ENDROOT
TORSDOF 0
ENDMDL
MODEL 3
REMARK VINA RESULT:      -2.7      8.042      8.278
REMARK  Name = ACN
REMARK  2 active torsions:
REMARK  status: ('A' for Active; 'I' for Inactive)
REMARK    1  A    between atoms: C_1  and  C_3
REMARK    2  A    between atoms: C_1  and  C_4
REMARK                            x       y       z     vdW  Elec       q    Type
REMARK                         _______ _______ _______ _____ _____    ______ ____
ROOT
ATOM      1  C   UNL     1     -46.250   1.555  97.913  0.00  0.00    +0.127 C 
ATOM      2  C   UNL     1     -45.013   1.307  98.736  0.00  0.00    +0.085 C 
ATOM      3  C   UNL     1     -46.248   2.625  96.852  0.00  0.00    +0.085 C 
ATOM      4  O   UNL     1     -47.246   0.899  98.107  0.00  0.00    -0.298 OA
ENDROOT
TORSDOF 0
ENDMDL
MODEL 4
REMARK VINA RESULT:      -2.7      6.560      6.907
REMARK  Name = ACN
REMARK  2 active torsions:
REMARK  status: ('A' for Active; 'I' for Inactive)
REMARK    1  A    between atoms: C_1  and  C_3
REMARK    2  A    between atoms: C_1  and  C_4
REMARK                            x       y       z     vdW  Elec       q    Type
REMARK                         _______ _______ _______ _____ _____    ______ ____
ROOT
ATOM      1  C   UNL     1     -40.784   3.712  99.048  0.00  0.00    +0.127 C 
ATOM      2  C   UNL     1     -40.683   2.940 100.338  0.00  0.00    +0.085 C 
ATOM      3  C   UNL     1     -42.135   4.061  98.482  0.00  0.00    +0.085 C 
ATOM      4  O   UNL     1     -39.780   4.048  98.466  0.00  0.00    -0.298 OA
ENDROOT
TORSDOF 0
ENDMDL
MODEL 5
REMARK VINA RESULT:      -2.6      9.842      9.852
REMARK  Name = ACN
REMARK  2 active torsions:
REMARK  status: ('A' for Active; 'I' for Inactive)
REMARK    1  A    between atoms: C_1  and  C_3
REMARK    2  A    between atoms: C_1  and  C_4
REMARK                            x       y       z     vdW  Elec       q    Type
REMARK                         _______ _______ _______ _____ _____    ______ ____
ROOT
ATOM      1  C   UNL     1     -52.720   5.340  97.436  0.00  0.00    +0.127 C 
ATOM      2  C   UNL     1     -53.570   6.203  98.332  0.00  0.00    +0.085 C 
ATOM      3  C   UNL     1     -52.420   3.915  97.824  0.00  0.00    +0.085 C 
ATOM      4  O   UNL     1     -52.274   5.793  96.408  0.00  0.00    -0.298 OA
ENDROOT
TORSDOF 0
ENDMDL
MODEL 6
REMARK VINA RESULT:      -2.5      7.365      7.630
REMARK  Name = ACN
REMARK  2 active torsions:
REMARK  status: ('A' for Active; 'I' for Inactive)
REMARK    1  A    between atoms: C_1  and  C_3
REMARK    2  A    between atoms: C_1  and  C_4
REMARK                            x       y       z     vdW  Elec       q    Type
REMARK                         _______ _______ _______ _____ _____    ______ ____
ROOT
ATOM      1  C   UNL     1     -44.683   1.799  98.713  0.00  0.00    +0.127 C 
ATOM      2  C   UNL     1     -43.365   1.078  98.605  0.00  0.00    +0.085 C 
ATOM      3  C   UNL     1     -45.338   2.361  97.478  0.00  0.00    +0.085 C 
ATOM      4  O   UNL     1     -45.212   1.932  99.790  0.00  0.00    -0.298 OA
ENDROOT
TORSDOF 0
ENDMDL
MODEL 7
REMARK VINA RESULT:      -2.4      9.137      9.748
REMARK  Name = ACN
REMARK  2 active torsions:
REMARK  status: ('A' for Active; 'I' for Inactive)
REMARK    1  A    between atoms: C_1  and  C_3
REMARK    2  A    between atoms: C_1  and  C_4
REMARK                            x       y       z     vdW  Elec       q    Type
REMARK                         _______ _______ _______ _____ _____    ______ ____
ROOT
ATOM      1  C   UNL     1     -52.038   3.087  98.658  0.00  0.00    +0.127 C 
ATOM      2  C   UNL     1     -53.157   3.627  97.806  0.00  0.00    +0.085 C 
ATOM      3  C   UNL     1     -50.611   3.192  98.184  0.00  0.00    +0.085 C 
ATOM      4  O   UNL     1     -52.284   2.566  99.719  0.00  0.00    -0.298 OA
ENDROOT
TORSDOF 0
ENDMDL
MODEL 8
REMARK VINA RESULT:      -2.4     15.149     15.899
REMARK  Name = ACN
REMARK  2 active torsions:
REMARK  status: ('A' for Active; 'I' for Inactive)
REMARK    1  A    between atoms: C_1  and  C_3
REMARK    2  A    between atoms: C_1  and  C_4
REMARK                            x       y       z     vdW  Elec       q    Type
REMARK                         _______ _______ _______ _____ _____    ______ ____
ROOT
ATOM      1  C   UNL     1     -35.985  18.112 110.854  0.00  0.00    +0.127 C 
ATOM      2  C   UNL     1     -34.682  18.004 111.602  0.00  0.00    +0.085 C 
ATOM      3  C   UNL     1     -37.183  17.320 111.307  0.00  0.00    +0.085 C 
ATOM      4  O   UNL     1     -36.068  18.831 109.886  0.00  0.00    -0.298 OA
ENDROOT
TORSDOF 0
ENDMDL
MODEL 9
REMARK VINA RESULT:      -2.4     10.363     10.710
REMARK  Name = ACN
REMARK  2 active torsions:
REMARK  status: ('A' for Active; 'I' for Inactive)
REMARK    1  A    between atoms: C_1  and  C_3
REMARK    2  A    between atoms: C_1  and  C_4
REMARK                            x       y       z     vdW  Elec       q    Type
REMARK                         _______ _______ _______ _____ _____    ______ ____
ROOT
ATOM      1  C   UNL     1     -53.538   4.376  97.735  0.00  0.00    +0.127 C 
ATOM      2  C   UNL     1     -52.981   3.041  98.156  0.00  0.00    +0.085 C 
ATOM      3  C   UNL     1     -52.616   5.449  97.218  0.00  0.00    +0.085 C 
ATOM      4  O   UNL     1     -54.724   4.588  97.818  0.00  0.00    -0.298 OA
ENDROOT
TORSDOF 0
ENDMDL
