MODEL 1
REMARK VINA RESULT:      -4.0      0.000      0.000
REMARK  Name = BNZ
REMARK  0 active torsions:
REMARK  status: ('A' for Active; 'I' for Inactive)
REMARK                            x       y       z     vdW  Elec       q    Type
REMARK                         _______ _______ _______ _____ _____    ______ ____
ROOT
ATOM      1  C   UNL     1     -42.561   8.062 104.054  0.00  0.00    +0.000 A 
ATOM      2  C   UNL     1     -41.330   7.476 103.832  0.00  0.00    +0.000 A 
ATOM      3  C   UNL     1     -41.127   6.700 102.705  0.00  0.00    +0.000 A 
ATOM      4  C   UNL     1     -42.157   6.509 101.804  0.00  0.00    +0.000 A 
ATOM      5  C   UNL     1     -43.388   7.095 102.026  0.00  0.00    +0.000 A 
ATOM      6  C   UNL     1     -43.591   7.872 103.152  0.00  0.00    +0.000 A 
ENDROOT
TORSDOF 0
ENDMDL
MODEL 2
REMARK VINA RESULT:      -4.0      0.360      2.316
REMARK  Name = BNZ
REMARK  0 active torsions:
REMARK  status: ('A' for Active; 'I' for Inactive)
REMARK                            x       y       z     vdW  Elec       q    Type
REMARK                         _______ _______ _______ _____ _____    ______ ____
ROOT
ATOM      1  C   UNL     1     -40.844   6.807 103.068  0.00  0.00    +0.000 A 
ATOM      2  C   UNL     1     -41.761   6.491 102.083  0.00  0.00    +0.000 A 
ATOM      3  C   UNL     1     -43.044   7.004 102.142  0.00  0.00    +0.000 A 
ATOM      4  C   UNL     1     -43.410   7.830 103.188  0.00  0.00    +0.000 A 
ATOM      5  C   UNL     1     -42.494   8.145 104.173  0.00  0.00    +0.000 A 
ATOM      6  C   UNL     1     -41.210   7.634 104.113  0.00  0.00    +0.000 A 
ENDROOT
TORSDOF 0
ENDMDL
MODEL 3
REMARK VINA RESULT:      -4.0      0.177      1.955
REMARK  Name = BNZ
REMARK  0 active torsions:
REMARK  status: ('A' for Active; 'I' for Inactive)
REMARK                            x       y       z     vdW  Elec       q    Type
REMARK                         _______ _______ _______ _____ _____    ______ ____
ROOT
ATOM      1  C   UNL     1     -42.675   8.094 104.029  0.00  0.00    +0.000 A 
ATOM      2  C   UNL     1     -43.595   7.810 103.039  0.00  0.00    +0.000 A 
ATOM      3  C   UNL     1     -43.238   7.006 101.972  0.00  0.00    +0.000 A 
ATOM      4  C   UNL     1     -41.959   6.490 101.895  0.00  0.00    +0.000 A 
ATOM      5  C   UNL     1     -41.038   6.774 102.885  0.00  0.00    +0.000 A 
ATOM      6  C   UNL     1     -41.395   7.576 103.953  0.00  0.00    +0.000 A 
ENDROOT
TORSDOF 0
ENDMDL
MODEL 4
REMARK VINA RESULT:      -3.9      0.924      2.500
REMARK  Name = BNZ
REMARK  0 active torsions:
REMARK  status: ('A' for Active; 'I' for Inactive)
REMARK                            x       y       z     vdW  Elec       q    Type
REMARK                         _______ _______ _______ _____ _____    ______ ____
ROOT
ATOM      1  C   UNL     1     -44.555   7.084 101.667  0.00  0.00    +0.000 A 
ATOM      2  C   UNL     1     -44.431   7.822 102.828  0.00  0.00    +0.000 A 
ATOM      3  C   UNL     1     -43.216   7.877 103.487  0.00  0.00    +0.000 A 
ATOM      4  C   UNL     1     -42.127   7.190 102.984  0.00  0.00    +0.000 A 
ATOM      5  C   UNL     1     -42.251   6.452 101.824  0.00  0.00    +0.000 A 
ATOM      6  C   UNL     1     -43.465   6.398 101.164  0.00  0.00    +0.000 A 
ENDROOT
TORSDOF 0
ENDMDL
MODEL 5
REMARK VINA RESULT:      -3.8      0.980      2.298
REMARK  Name = BNZ
REMARK  0 active torsions:
REMARK  status: ('A' for Active; 'I' for Inactive)
REMARK                            x       y       z     vdW  Elec       q    Type
REMARK                         _______ _______ _______ _____ _____    ______ ____
ROOT
ATOM      1  C   UNL     1     -44.584   7.220 101.692  0.00  0.00    +0.000 A 
ATOM      2  C   UNL     1     -43.695   6.325 101.128  0.00  0.00    +0.000 A 
ATOM      3  C   UNL     1     -42.423   6.190 101.654  0.00  0.00    +0.000 A 
ATOM      4  C   UNL     1     -42.041   6.953 102.741  0.00  0.00    +0.000 A 
ATOM      5  C   UNL     1     -42.929   7.848 103.304  0.00  0.00    +0.000 A 
ATOM      6  C   UNL     1     -44.202   7.982 102.780  0.00  0.00    +0.000 A 
ENDROOT
TORSDOF 0
ENDMDL
MODEL 6
REMARK VINA RESULT:      -3.7      1.012      2.349
REMARK  Name = BNZ
REMARK  0 active torsions:
REMARK  status: ('A' for Active; 'I' for Inactive)
REMARK                            x       y       z     vdW  Elec       q    Type
REMARK                         _______ _______ _______ _____ _____    ______ ____
ROOT
ATOM      1  C   UNL     1     -40.722   7.907 104.936  0.00  0.00    +0.000 A 
ATOM      2  C   UNL     1     -42.006   8.375 104.729  0.00  0.00    +0.000 A 
ATOM      3  C   UNL     1     -42.734   7.935 103.639  0.00  0.00    +0.000 A 
ATOM      4  C   UNL     1     -42.176   7.031 102.755  0.00  0.00    +0.000 A 
ATOM      5  C   UNL     1     -40.892   6.565 102.961  0.00  0.00    +0.000 A 
ATOM      6  C   UNL     1     -40.164   7.002 104.053  0.00  0.00    +0.000 A 
ENDROOT
TORSDOF 0
ENDMDL
MODEL 7
REMARK VINA RESULT:      -3.6     18.826     19.757
REMARK  Name = BNZ
REMARK  0 active torsions:
REMARK  status: ('A' for Active; 'I' for Inactive)
REMARK                            x       y       z     vdW  Elec       q    Type
REMARK                         _______ _______ _______ _____ _____    ______ ____
ROOT
ATOM      1  C   UNL     1     -52.529  21.298  93.048  0.00  0.00    +0.000 A 
ATOM      2  C   UNL     1     -51.733  20.673  93.988  0.00  0.00    +0.000 A 
ATOM      3  C   UNL     1     -50.755  21.389  94.653  0.00  0.00    +0.000 A 
ATOM      4  C   UNL     1     -50.572  22.731  94.373  0.00  0.00    +0.000 A 
ATOM      5  C   UNL     1     -51.367  23.356  93.432  0.00  0.00    +0.000 A 
ATOM      6  C   UNL     1     -52.347  22.639  92.769  0.00  0.00    +0.000 A 
ENDROOT
TORSDOF 0
ENDMDL
MODEL 8
REMARK VINA RESULT:      -3.6     13.484     14.688
REMARK  Name = BNZ
REMARK  0 active torsions:
REMARK  status: ('A' for Active; 'I' for Inactive)
REMARK                            x       y       z     vdW  Elec       q    Type
REMARK                         _______ _______ _______ _____ _____    ______ ____
ROOT
ATOM      1  C   UNL     1     -36.081  16.476 110.486  0.00  0.00    +0.000 A 
ATOM      2  C   UNL     1     -35.100  15.502 110.499  0.00  0.00    +0.000 A 
ATOM      3  C   UNL     1     -33.980  15.660 111.294  0.00  0.00    +0.000 A 
ATOM      4  C   UNL     1     -33.840  16.793 112.072  0.00  0.00    +0.000 A 
ATOM      5  C   UNL     1     -34.820  17.767 112.058  0.00  0.00    +0.000 A 
ATOM      6  C   UNL     1     -35.941  17.609 111.265  0.00  0.00    +0.000 A 
ENDROOT
TORSDOF 0
ENDMDL
MODEL 9
REMARK VINA RESULT:      -3.6     18.804     19.704
REMARK  Name = BNZ
REMARK  0 active torsions:
REMARK  status: ('A' for Active; 'I' for Inactive)
REMARK                            x       y       z     vdW  Elec       q    Type
REMARK                         _______ _______ _______ _____ _____    ______ ____
ROOT
ATOM      1  C   UNL     1     -50.792  21.389  94.726  0.00  0.00    +0.000 A 
ATOM      2  C   UNL     1     -50.587  22.727  94.450  0.00  0.00    +0.000 A 
ATOM      3  C   UNL     1     -51.343  23.356  93.477  0.00  0.00    +0.000 A 
ATOM      4  C   UNL     1     -52.299  22.644  92.779  0.00  0.00    +0.000 A 
ATOM      5  C   UNL     1     -52.504  21.305  93.054  0.00  0.00    +0.000 A 
ATOM      6  C   UNL     1     -51.750  20.677  94.029  0.00  0.00    +0.000 A 
ENDROOT
TORSDOF 0
ENDMDL
