MODEL 1
REMARK VINA RESULT:      -3.7      0.000      0.000
REMARK  Name = CHX
REMARK  0 active torsions:
REMARK  status: ('A' for Active; 'I' for Inactive)
REMARK                            x       y       z     vdW  Elec       q    Type
REMARK                         _______ _______ _______ _____ _____    ______ ____
ROOT
ATOM      1  C   UNL     1     -43.103   7.628 103.325  0.00  0.00    -0.000 C 
ATOM      2  C   UNL     1     -44.325   8.087 102.528  0.00  0.00    -0.000 C 
ATOM      3  C   UNL     1     -44.848   6.925 101.683  0.00  0.00    -0.000 C 
ATOM      4  C   UNL     1     -43.754   6.465 100.718  0.00  0.00    -0.000 C 
ATOM      5  C   UNL     1     -42.532   6.006 101.514  0.00  0.00    -0.000 C 
ATOM      6  C   UNL     1     -42.009   7.168 102.360  0.00  0.00    -0.000 C 
ENDROOT
TORSDOF 0
ENDMDL
MODEL 2
REMARK VINA RESULT:      -3.6      0.115      2.102
REMARK  Name = CHX
REMARK  0 active torsions:
REMARK  status: ('A' for Active; 'I' for Inactive)
REMARK                            x       y       z     vdW  Elec       q    Type
REMARK                         _______ _______ _______ _____ _____    ______ ____
ROOT
ATOM      1  C   UNL     1     -44.222   8.106 102.594  0.00  0.00    -0.000 C 
ATOM      2  C   UNL     1     -42.973   7.582 103.304  0.00  0.00    -0.000 C 
ATOM      3  C   UNL     1     -41.963   7.096 102.264  0.00  0.00    -0.000 C 
ATOM      4  C   UNL     1     -42.587   5.972 101.435  0.00  0.00    -0.000 C 
ATOM      5  C   UNL     1     -43.836   6.496 100.725  0.00  0.00    -0.000 C 
ATOM      6  C   UNL     1     -44.846   6.983 101.765  0.00  0.00    -0.000 C 
ENDROOT
TORSDOF 0
ENDMDL
MODEL 3
REMARK VINA RESULT:      -3.6      0.214      2.440
REMARK  Name = CHX
REMARK  0 active torsions:
REMARK  status: ('A' for Active; 'I' for Inactive)
REMARK                            x       y       z     vdW  Elec       q    Type
REMARK                         _______ _______ _______ _____ _____    ______ ____
ROOT
ATOM      1  C   UNL     1     -42.301   6.077 101.649  0.00  0.00    -0.000 C 
ATOM      2  C   UNL     1     -41.898   7.242 102.553  0.00  0.00    -0.000 C 
ATOM      3  C   UNL     1     -43.087   7.647 103.424  0.00  0.00    -0.000 C 
ATOM      4  C   UNL     1     -44.252   8.075 102.530  0.00  0.00    -0.000 C 
ATOM      5  C   UNL     1     -44.656   6.909 101.626  0.00  0.00    -0.000 C 
ATOM      6  C   UNL     1     -43.466   6.505 100.755  0.00  0.00    -0.000 C 
ENDROOT
TORSDOF 0
ENDMDL
MODEL 4
REMARK VINA RESULT:      -3.5      4.881      6.210
REMARK  Name = CHX
REMARK  0 active torsions:
REMARK  status: ('A' for Active; 'I' for Inactive)
REMARK                            x       y       z     vdW  Elec       q    Type
REMARK                         _______ _______ _______ _____ _____    ______ ____
ROOT
ATOM      1  C   UNL     1     -43.102   3.465  98.876  0.00  0.00    -0.000 C 
ATOM      2  C   UNL     1     -42.491   2.151  99.363  0.00  0.00    -0.000 C 
ATOM      3  C   UNL     1     -43.096   0.986  98.579  0.00  0.00    -0.000 C 
ATOM      4  C   UNL     1     -44.609   0.956  98.797  0.00  0.00    -0.000 C 
ATOM      5  C   UNL     1     -45.221   2.270  98.310  0.00  0.00    -0.000 C 
ATOM      6  C   UNL     1     -44.616   3.435  99.094  0.00  0.00    -0.000 C 
ENDROOT
TORSDOF 0
ENDMDL
MODEL 5
REMARK VINA RESULT:      -3.5      4.852      5.992
REMARK  Name = CHX
REMARK  0 active torsions:
REMARK  status: ('A' for Active; 'I' for Inactive)
REMARK                            x       y       z     vdW  Elec       q    Type
REMARK                         _______ _______ _______ _____ _____    ______ ____
ROOT
ATOM      1  C   UNL     1     -44.659   3.405  99.153  0.00  0.00    -0.000 C 
ATOM      2  C   UNL     1     -45.239   2.256  98.328  0.00  0.00    -0.000 C 
ATOM      3  C   UNL     1     -44.609   0.937  98.778  0.00  0.00    -0.000 C 
ATOM      4  C   UNL     1     -43.095   0.998  98.573  0.00  0.00    -0.000 C 
ATOM      5  C   UNL     1     -42.515   2.147  99.399  0.00  0.00    -0.000 C 
ATOM      6  C   UNL     1     -43.144   3.466  98.949  0.00  0.00    -0.000 C 
ENDROOT
TORSDOF 0
ENDMDL
MODEL 6
REMARK VINA RESULT:      -3.5      4.815      6.108
REMARK  Name = CHX
REMARK  0 active torsions:
REMARK  status: ('A' for Active; 'I' for Inactive)
REMARK                            x       y       z     vdW  Elec       q    Type
REMARK                         _______ _______ _______ _____ _____    ______ ____
ROOT
ATOM      1  C   UNL     1     -43.098   1.006  98.561  0.00  0.00    -0.000 C 
ATOM      2  C   UNL     1     -44.607   0.946  98.802  0.00  0.00    -0.000 C 
ATOM      3  C   UNL     1     -45.239   2.279  98.399  0.00  0.00    -0.000 C 
ATOM      4  C   UNL     1     -44.633   3.406  99.237  0.00  0.00    -0.000 C 
ATOM      5  C   UNL     1     -43.124   3.465  98.996  0.00  0.00    -0.000 C 
ATOM      6  C   UNL     1     -42.491   2.132  99.400  0.00  0.00    -0.000 C 
ENDROOT
TORSDOF 0
ENDMDL
MODEL 7
REMARK VINA RESULT:      -3.5      5.082      6.279
REMARK  Name = CHX
REMARK  0 active torsions:
REMARK  status: ('A' for Active; 'I' for Inactive)
REMARK                            x       y       z     vdW  Elec       q    Type
REMARK                         _______ _______ _______ _____ _____    ______ ____
ROOT
ATOM      1  C   UNL     1     -44.952   2.434  97.860  0.00  0.00    -0.000 C 
ATOM      2  C   UNL     1     -44.280   3.623  98.547  0.00  0.00    -0.000 C 
ATOM      3  C   UNL     1     -42.763   3.430  98.532  0.00  0.00    -0.000 C 
ATOM      4  C   UNL     1     -42.407   2.142  99.278  0.00  0.00    -0.000 C 
ATOM      5  C   UNL     1     -43.078   0.953  98.590  0.00  0.00    -0.000 C 
ATOM      6  C   UNL     1     -44.595   1.146  98.605  0.00  0.00    -0.000 C 
ENDROOT
TORSDOF 0
ENDMDL
MODEL 8
REMARK VINA RESULT:      -3.5      5.712      6.668
REMARK  Name = CHX
REMARK  0 active torsions:
REMARK  status: ('A' for Active; 'I' for Inactive)
REMARK                            x       y       z     vdW  Elec       q    Type
REMARK                         _______ _______ _______ _____ _____    ______ ____
ROOT
ATOM      1  C   UNL     1     -45.742   1.278  98.400  0.00  0.00    -0.000 C 
ATOM      2  C   UNL     1     -46.655   2.068  97.461  0.00  0.00    -0.000 C 
ATOM      3  C   UNL     1     -45.803   2.895  96.497  0.00  0.00    -0.000 C 
ATOM      4  C   UNL     1     -44.928   3.864  97.293  0.00  0.00    -0.000 C 
ATOM      5  C   UNL     1     -44.015   3.074  98.231  0.00  0.00    -0.000 C 
ATOM      6  C   UNL     1     -44.867   2.248  99.196  0.00  0.00    -0.000 C 
ENDROOT
TORSDOF 0
ENDMDL
MODEL 9
REMARK VINA RESULT:      -3.5      5.113      6.128
REMARK  Name = CHX
REMARK  0 active torsions:
REMARK  status: ('A' for Active; 'I' for Inactive)
REMARK                            x       y       z     vdW  Elec       q    Type
REMARK                         _______ _______ _______ _____ _____    ______ ____
ROOT
ATOM      1  C   UNL     1     -42.530   2.222  99.167  0.00  0.00    -0.000 C 
ATOM      2  C   UNL     1     -43.148   3.454  98.504  0.00  0.00    -0.000 C 
ATOM      3  C   UNL     1     -44.658   3.458  98.744  0.00  0.00    -0.000 C 
ATOM      4  C   UNL     1     -45.273   2.193  98.142  0.00  0.00    -0.000 C 
ATOM      5  C   UNL     1     -44.655   0.961  98.805  0.00  0.00    -0.000 C 
ATOM      6  C   UNL     1     -43.145   0.958  98.565  0.00  0.00    -0.000 C 
ENDROOT
TORSDOF 0
ENDMDL
