MODEL 1
REMARK VINA RESULT:      -2.8      0.000      0.000
REMARK  Name = DMF
REMARK  2 active torsions:
REMARK  status: ('A' for Active; 'I' for Inactive)
REMARK    1  A    between atoms: C_1  and  N_5
REMARK    2  A    between atoms: C_2  and  N_5
REMARK                            x       y       z     vdW  Elec       q    Type
REMARK                         _______ _______ _______ _____ _____    ______ ____
ROOT
ATOM      1  C   UNL     1     -43.050   4.083  99.505  0.00  0.00    +0.131 C 
ATOM      2  N   UNL     1     -41.711   4.544  99.127  0.00  0.00    -0.310 N 
ATOM      3  C   UNL     1     -40.778   3.653  98.742  0.00  0.00    +0.327 C 
ATOM      4  O   UNL     1     -39.669   4.033  98.429  0.00  0.00    -0.279 OA
ATOM      5  C   UNL     1     -41.389   5.971  99.168  0.00  0.00    +0.131 C 
ENDROOT
TORSDOF 0
ENDMDL
MODEL 2
REMARK VINA RESULT:      -2.8      9.832     10.413
REMARK  Name = DMF
REMARK  2 active torsions:
REMARK  status: ('A' for Active; 'I' for Inactive)
REMARK    1  A    between atoms: C_1  and  N_5
REMARK    2  A    between atoms: C_2  and  N_5
REMARK                            x       y       z     vdW  Elec       q    Type
REMARK                         _______ _______ _______ _____ _____    ______ ____
ROOT
ATOM      1  C   UNL     1     -51.207   3.074  98.506  0.00  0.00    +0.131 C 
ATOM      2  N   UNL     1     -51.253   4.432  97.960  0.00  0.00    -0.310 N 
ATOM      3  C   UNL     1     -52.281   4.806  97.173  0.00  0.00    +0.327 C 
ATOM      4  O   UNL     1     -52.321   5.931  96.720  0.00  0.00    -0.279 OA
ATOM      5  C   UNL     1     -50.183   5.383  98.268  0.00  0.00    +0.131 C 
ENDROOT
TORSDOF 0
ENDMDL
MODEL 3
REMARK VINA RESULT:      -2.8      5.493      6.022
REMARK  Name = DMF
REMARK  2 active torsions:
REMARK  status: ('A' for Active; 'I' for Inactive)
REMARK    1  A    between atoms: C_1  and  N_5
REMARK    2  A    between atoms: C_2  and  N_5
REMARK                            x       y       z     vdW  Elec       q    Type
REMARK                         _______ _______ _______ _____ _____    ______ ____
ROOT
ATOM      1  C   UNL     1     -45.622   3.851  96.560  0.00  0.00    +0.131 C 
ATOM      2  N   UNL     1     -45.871   2.604  97.287  0.00  0.00    -0.310 N 
ATOM      3  C   UNL     1     -47.112   2.081  97.318  0.00  0.00    +0.327 C 
ATOM      4  O   UNL     1     -47.319   1.048  97.920  0.00  0.00    -0.279 OA
ATOM      5  C   UNL     1     -44.773   1.927  97.978  0.00  0.00    +0.131 C 
ENDROOT
TORSDOF 0
ENDMDL
MODEL 4
REMARK VINA RESULT:      -2.8      1.613      2.069
REMARK  Name = DMF
REMARK  2 active torsions:
REMARK  status: ('A' for Active; 'I' for Inactive)
REMARK    1  A    between atoms: C_1  and  N_5
REMARK    2  A    between atoms: C_2  and  N_5
REMARK                            x       y       z     vdW  Elec       q    Type
REMARK                         _______ _______ _______ _____ _____    ______ ____
ROOT
ATOM      1  C   UNL     1     -42.802   2.292  99.283  0.00  0.00    +0.131 C 
ATOM      2  N   UNL     1     -41.438   2.812  99.411  0.00  0.00    -0.310 N 
ATOM      3  C   UNL     1     -40.924   3.595  98.443  0.00  0.00    +0.327 C 
ATOM      4  O   UNL     1     -39.794   4.026  98.548  0.00  0.00    -0.279 OA
ATOM      5  C   UNL     1     -40.635   2.480 100.590  0.00  0.00    +0.131 C 
ENDROOT
TORSDOF 0
ENDMDL
MODEL 5
REMARK VINA RESULT:      -2.6     11.629     12.043
REMARK  Name = DMF
REMARK  2 active torsions:
REMARK  status: ('A' for Active; 'I' for Inactive)
REMARK    1  A    between atoms: C_1  and  N_5
REMARK    2  A    between atoms: C_2  and  N_5
REMARK                            x       y       z     vdW  Elec       q    Type
REMARK                         _______ _______ _______ _____ _____    ______ ____
ROOT
ATOM      1  C   UNL     1     -53.889   3.975  99.062  0.00  0.00    +0.131 C 
ATOM      2  N   UNL     1     -53.466   5.109  98.236  0.00  0.00    -0.310 N 
ATOM      3  C   UNL     1     -52.604   4.916  97.220  0.00  0.00    +0.327 C 
ATOM      4  O   UNL     1     -52.253   5.855  96.536  0.00  0.00    -0.279 OA
ATOM      5  C   UNL     1     -53.980   6.451  98.517  0.00  0.00    +0.131 C 
ENDROOT
TORSDOF 0
ENDMDL
MODEL 6
REMARK VINA RESULT:      -2.6      9.859     10.652
REMARK  Name = DMF
REMARK  2 active torsions:
REMARK  status: ('A' for Active; 'I' for Inactive)
REMARK    1  A    between atoms: C_1  and  N_5
REMARK    2  A    between atoms: C_2  and  N_5
REMARK                            x       y       z     vdW  Elec       q    Type
REMARK                         _______ _______ _______ _____ _____    ______ ____
ROOT
ATOM      1  C   UNL     1     -52.415   5.337  97.092  0.00  0.00    +0.131 C 
ATOM      2  N   UNL     1     -52.043   4.110  97.801  0.00  0.00    -0.310 N 
ATOM      3  C   UNL     1     -50.767   3.918  98.187  0.00  0.00    +0.327 C 
ATOM      4  O   UNL     1     -50.457   2.902  98.774  0.00  0.00    -0.279 OA
ATOM      5  C   UNL     1     -53.057   3.093  98.088  0.00  0.00    +0.131 C 
ENDROOT
TORSDOF 0
ENDMDL
MODEL 7
REMARK VINA RESULT:      -2.6      4.350      5.032
REMARK  Name = DMF
REMARK  2 active torsions:
REMARK  status: ('A' for Active; 'I' for Inactive)
REMARK    1  A    between atoms: C_1  and  N_5
REMARK    2  A    between atoms: C_2  and  N_5
REMARK                            x       y       z     vdW  Elec       q    Type
REMARK                         _______ _______ _______ _____ _____    ______ ____
ROOT
ATOM      1  C   UNL     1     -43.842   4.333  97.964  0.00  0.00    +0.131 C 
ATOM      2  N   UNL     1     -44.828   3.337  97.536  0.00  0.00    -0.310 N 
ATOM      3  C   UNL     1     -45.603   3.578  96.461  0.00  0.00    +0.327 C 
ATOM      4  O   UNL     1     -46.420   2.754  96.105  0.00  0.00    -0.279 OA
ATOM      5  C   UNL     1     -44.970   2.082  98.276  0.00  0.00    +0.131 C 
ENDROOT
TORSDOF 0
ENDMDL
MODEL 8
REMARK VINA RESULT:      -2.6      3.122      3.617
REMARK  Name = DMF
REMARK  2 active torsions:
REMARK  status: ('A' for Active; 'I' for Inactive)
REMARK    1  A    between atoms: C_1  and  N_5
REMARK    2  A    between atoms: C_2  and  N_5
REMARK                            x       y       z     vdW  Elec       q    Type
REMARK                         _______ _______ _______ _____ _____    ______ ____
ROOT
ATOM      1  C   UNL     1     -44.281   2.981  98.688  0.00  0.00    +0.131 C 
ATOM      2  N   UNL     1     -44.234   3.959  97.598  0.00  0.00    -0.310 N 
ATOM      3  C   UNL     1     -43.223   4.847  97.535  0.00  0.00    +0.327 C 
ATOM      4  O   UNL     1     -43.184   5.657  96.632  0.00  0.00    -0.279 OA
ATOM      5  C   UNL     1     -45.285   3.970  96.579  0.00  0.00    +0.131 C 
ENDROOT
TORSDOF 0
ENDMDL
MODEL 9
REMARK VINA RESULT:      -2.6      3.481      4.222
REMARK  Name = DMF
REMARK  2 active torsions:
REMARK  status: ('A' for Active; 'I' for Inactive)
REMARK    1  A    between atoms: C_1  and  N_5
REMARK    2  A    between atoms: C_2  and  N_5
REMARK                            x       y       z     vdW  Elec       q    Type
REMARK                         _______ _______ _______ _____ _____    ______ ____
ROOT
ATOM      1  C   UNL     1     -42.412   3.531  98.450  0.00  0.00    +0.131 C 
ATOM      2  N   UNL     1     -43.358   2.481  98.834  0.00  0.00    -0.310 N 
ATOM      3  C   UNL     1     -44.546   2.812  99.376  0.00  0.00    +0.327 C 
ATOM      4  O   UNL     1     -45.330   1.942  99.695  0.00  0.00    -0.279 OA
ATOM      5  C   UNL     1     -43.013   1.073  98.628  0.00  0.00    +0.131 C 
ENDROOT
TORSDOF 0
ENDMDL
