MODEL 1
REMARK VINA RESULT:      -2.3      0.000      0.000
REMARK  Name = EOH
REMARK  2 active torsions:
REMARK  status: ('A' for Active; 'I' for Inactive)
REMARK    1  A    between atoms: C_1  and  C_2
REMARK    2  A    between atoms: C_1  and  O_3
REMARK                            x       y       z     vdW  Elec       q    Type
REMARK                         _______ _______ _______ _____ _____    ______ ____
ROOT
ATOM      1  C   UNL     1     -50.647  22.288  94.380  0.00  0.00    +0.152 C 
ATOM      2  C   UNL     1     -51.083  23.500  93.554  0.00  0.00    +0.034 C 
ENDROOT
BRANCH   1   3
ATOM      3  O   UNL     1     -49.572  22.664  95.243  0.00  0.00    -0.395 OA
ATOM      4  H   UNL     1     -49.262  21.950  95.819  0.00  0.00    +0.209 HD
ENDBRANCH   1   3
TORSDOF 1
ENDMDL
MODEL 2
REMARK VINA RESULT:      -2.3     18.135     18.531
REMARK  Name = EOH
REMARK  2 active torsions:
REMARK  status: ('A' for Active; 'I' for Inactive)
REMARK    1  A    between atoms: C_1  and  C_2
REMARK    2  A    between atoms: C_1  and  O_3
REMARK                            x       y       z     vdW  Elec       q    Type
REMARK                         _______ _______ _______ _____ _____    ______ ____
ROOT
ATOM      1  C   UNL     1     -41.139   6.881  99.059  0.00  0.00    +0.152 C 
ATOM      2  C   UNL     1     -42.547   7.468  98.949  0.00  0.00    +0.034 C 
ENDROOT
BRANCH   1   3
ATOM      3  O   UNL     1     -40.238   7.656  98.266  0.00  0.00    -0.395 OA
ATOM      4  H   UNL     1     -40.050   7.273  97.397  0.00  0.00    +0.209 HD
ENDBRANCH   1   3
TORSDOF 1
ENDMDL
MODEL 3
REMARK VINA RESULT:      -2.3     17.655     18.071
REMARK  Name = EOH
REMARK  2 active torsions:
REMARK  status: ('A' for Active; 'I' for Inactive)
REMARK    1  A    between atoms: C_1  and  C_2
REMARK    2  A    between atoms: C_1  and  O_3
REMARK                            x       y       z     vdW  Elec       q    Type
REMARK                         _______ _______ _______ _____ _____    ______ ____
ROOT
ATOM      1  C   UNL     1     -42.564   7.411  99.261  0.00  0.00    +0.152 C 
ATOM      2  C   UNL     1     -41.143   6.844  99.239  0.00  0.00    +0.034 C 
ENDROOT
BRANCH   1   3
ATOM      3  O   UNL     1     -42.717   8.350  98.194  0.00  0.00    -0.395 OA
ATOM      4  H   UNL     1     -43.569   8.290  97.738  0.00  0.00    +0.209 HD
ENDBRANCH   1   3
TORSDOF 1
ENDMDL
MODEL 4
REMARK VINA RESULT:      -2.2     21.820     22.270
REMARK  Name = EOH
REMARK  2 active torsions:
REMARK  status: ('A' for Active; 'I' for Inactive)
REMARK    1  A    between atoms: C_1  and  C_2
REMARK    2  A    between atoms: C_1  and  O_3
REMARK                            x       y       z     vdW  Elec       q    Type
REMARK                         _______ _______ _______ _____ _____    ______ ____
ROOT
ATOM      1  C   UNL     1     -40.817   4.008  99.155  0.00  0.00    +0.152 C 
ATOM      2  C   UNL     1     -40.936   2.705  99.949  0.00  0.00    +0.034 C 
ENDROOT
BRANCH   1   3
ATOM      3  O   UNL     1     -39.626   3.976  98.366  0.00  0.00    -0.395 OA
ATOM      4  H   UNL     1     -39.125   3.151  98.443  0.00  0.00    +0.209 HD
ENDBRANCH   1   3
TORSDOF 1
ENDMDL
MODEL 5
REMARK VINA RESULT:      -2.2     18.034     18.441
REMARK  Name = EOH
REMARK  2 active torsions:
REMARK  status: ('A' for Active; 'I' for Inactive)
REMARK    1  A    between atoms: C_1  and  C_2
REMARK    2  A    between atoms: C_1  and  O_3
REMARK                            x       y       z     vdW  Elec       q    Type
REMARK                         _______ _______ _______ _____ _____    ______ ____
ROOT
ATOM      1  C   UNL     1     -52.185   4.913  97.452  0.00  0.00    +0.152 C 
ATOM      2  C   UNL     1     -53.301   3.887  97.653  0.00  0.00    +0.034 C 
ENDROOT
BRANCH   1   3
ATOM      3  O   UNL     1     -52.387   5.599  96.214  0.00  0.00    -0.395 OA
ATOM      4  H   UNL     1     -51.804   5.303  95.501  0.00  0.00    +0.209 HD
ENDBRANCH   1   3
TORSDOF 1
ENDMDL
MODEL 6
REMARK VINA RESULT:      -2.1     22.186     22.594
REMARK  Name = EOH
REMARK  2 active torsions:
REMARK  status: ('A' for Active; 'I' for Inactive)
REMARK    1  A    between atoms: C_1  and  C_2
REMARK    2  A    between atoms: C_1  and  O_3
REMARK                            x       y       z     vdW  Elec       q    Type
REMARK                         _______ _______ _______ _____ _____    ______ ____
ROOT
ATOM      1  C   UNL     1     -35.788  18.298 110.421  0.00  0.00    +0.152 C 
ATOM      2  C   UNL     1     -34.758  18.080 111.531  0.00  0.00    +0.034 C 
ENDROOT
BRANCH   1   3
ATOM      3  O   UNL     1     -35.377  19.393 109.600  0.00  0.00    -0.395 OA
ATOM      4  H   UNL     1     -34.691  19.166 108.956  0.00  0.00    +0.209 HD
ENDBRANCH   1   3
TORSDOF 1
ENDMDL
MODEL 7
REMARK VINA RESULT:      -2.1     24.258     24.626
REMARK  Name = EOH
REMARK  2 active torsions:
REMARK  status: ('A' for Active; 'I' for Inactive)
REMARK    1  A    between atoms: C_1  and  C_2
REMARK    2  A    between atoms: C_1  and  O_3
REMARK                            x       y       z     vdW  Elec       q    Type
REMARK                         _______ _______ _______ _____ _____    ______ ____
ROOT
ATOM      1  C   UNL     1     -38.965   5.155 106.310  0.00  0.00    +0.152 C 
ATOM      2  C   UNL     1     -39.321   4.407 107.595  0.00  0.00    +0.034 C 
ENDROOT
BRANCH   1   3
ATOM      3  O   UNL     1     -39.098   4.273 105.194  0.00  0.00    -0.395 OA
ATOM      4  H   UNL     1     -38.463   3.542 105.192  0.00  0.00    +0.209 HD
ENDBRANCH   1   3
TORSDOF 1
ENDMDL
MODEL 8
REMARK VINA RESULT:      -2.0     18.353     18.765
REMARK  Name = EOH
REMARK  2 active torsions:
REMARK  status: ('A' for Active; 'I' for Inactive)
REMARK    1  A    between atoms: C_1  and  C_2
REMARK    2  A    between atoms: C_1  and  O_3
REMARK                            x       y       z     vdW  Elec       q    Type
REMARK                         _______ _______ _______ _____ _____    ______ ____
ROOT
ATOM      1  C   UNL     1     -52.729   4.169  97.597  0.00  0.00    +0.152 C 
ATOM      2  C   UNL     1     -52.493   5.663  97.372  0.00  0.00    +0.034 C 
ENDROOT
BRANCH   1   3
ATOM      3  O   UNL     1     -54.012   3.807  97.083  0.00  0.00    -0.395 OA
ATOM      4  H   UNL     1     -54.444   3.091  97.572  0.00  0.00    +0.209 HD
ENDBRANCH   1   3
TORSDOF 1
ENDMDL
MODEL 9
REMARK VINA RESULT:      -1.9     26.113     26.603
REMARK  Name = EOH
REMARK  2 active torsions:
REMARK  status: ('A' for Active; 'I' for Inactive)
REMARK    1  A    between atoms: C_1  and  C_2
REMARK    2  A    between atoms: C_1  and  O_3
REMARK                            x       y       z     vdW  Elec       q    Type
REMARK                         _______ _______ _______ _____ _____    ______ ____
ROOT
ATOM      1  C   UNL     1     -38.121   3.913 109.011  0.00  0.00    +0.152 C 
ATOM      2  C   UNL     1     -39.013   4.961 108.343  0.00  0.00    +0.034 C 
ENDROOT
BRANCH   1   3
ATOM      3  O   UNL     1     -38.233   4.030 110.431  0.00  0.00    -0.395 OA
ATOM      4  H   UNL     1     -39.044   4.468 110.727  0.00  0.00    +0.209 HD
ENDBRANCH   1   3
TORSDOF 1
ENDMDL
