MODEL 1
REMARK VINA RESULT:      -4.9      0.000      0.000
REMARK  Name = HBX
REMARK  1 active torsions:
REMARK  status: ('A' for Active; 'I' for Inactive)
REMARK    1  A    between atoms: C_1  and  C_3
REMARK                            x       y       z     vdW  Elec       q    Type
REMARK                         _______ _______ _______ _____ _____    ______ ____
ROOT
ATOM      1  C   UNL     1     -43.278   7.630 102.757  0.00  0.00    +0.014 A 
ATOM      2  C   UNL     1     -42.744   8.120 103.952  0.00  0.00    +0.011 A 
ATOM      3  C   UNL     1     -41.469   7.757 104.333  0.00  0.00    +0.001 A 
ATOM      4  C   UNL     1     -40.716   6.917 103.530  0.00  0.00    +0.000 A 
ATOM      5  C   UNL     1     -41.236   6.433 102.343  0.00  0.00    +0.001 A 
ATOM      6  C   UNL     1     -42.511   6.782 101.952  0.00  0.00    +0.011 A 
ENDROOT
BRANCH   1   7
ATOM      7  C   UNL     1     -44.640   8.007 102.346  0.00  0.00    +0.258 C 
ATOM      8  O   UNL     1     -44.804   8.889 101.530  0.00  0.00    -0.296 OA
ENDBRANCH   1   7
TORSDOF 1
ENDMDL
MODEL 2
REMARK VINA RESULT:      -4.7      1.592      2.204
REMARK  Name = HBX
REMARK  1 active torsions:
REMARK  status: ('A' for Active; 'I' for Inactive)
REMARK    1  A    between atoms: C_1  and  C_3
REMARK                            x       y       z     vdW  Elec       q    Type
REMARK                         _______ _______ _______ _____ _____    ______ ____
ROOT
ATOM      1  C   UNL     1     -43.295   6.550 101.449  0.00  0.00    +0.014 A 
ATOM      2  C   UNL     1     -44.109   7.390 102.215  0.00  0.00    +0.011 A 
ATOM      3  C   UNL     1     -43.601   7.989 103.350  0.00  0.00    +0.001 A 
ATOM      4  C   UNL     1     -42.287   7.767 103.724  0.00  0.00    +0.000 A 
ATOM      5  C   UNL     1     -41.474   6.941 102.968  0.00  0.00    +0.001 A 
ATOM      6  C   UNL     1     -41.969   6.331 101.834  0.00  0.00    +0.011 A 
ENDROOT
BRANCH   1   7
ATOM      7  C   UNL     1     -43.831   5.903 100.241  0.00  0.00    +0.258 C 
ATOM      8  O   UNL     1     -45.020   5.944 100.008  0.00  0.00    -0.296 OA
ENDBRANCH   1   7
TORSDOF 1
ENDMDL
MODEL 3
REMARK VINA RESULT:      -4.5      5.813      6.972
REMARK  Name = HBX
REMARK  1 active torsions:
REMARK  status: ('A' for Active; 'I' for Inactive)
REMARK    1  A    between atoms: C_1  and  C_3
REMARK                            x       y       z     vdW  Elec       q    Type
REMARK                         _______ _______ _______ _____ _____    ______ ____
ROOT
ATOM      1  C   UNL     1     -41.993   3.326  98.878  0.00  0.00    +0.014 A 
ATOM      2  C   UNL     1     -43.057   4.053  98.336  0.00  0.00    +0.011 A 
ATOM      3  C   UNL     1     -44.235   3.409  98.017  0.00  0.00    +0.001 A 
ATOM      4  C   UNL     1     -44.367   2.049  98.242  0.00  0.00    +0.000 A 
ATOM      5  C   UNL     1     -43.320   1.325  98.783  0.00  0.00    +0.001 A 
ATOM      6  C   UNL     1     -42.134   1.953  99.102  0.00  0.00    +0.011 A 
ENDROOT
BRANCH   1   7
ATOM      7  C   UNL     1     -40.730   4.004  99.215  0.00  0.00    +0.258 C 
ATOM      8  O   UNL     1     -39.820   4.021  98.415  0.00  0.00    -0.296 OA
ENDBRANCH   1   7
TORSDOF 1
ENDMDL
MODEL 4
REMARK VINA RESULT:      -4.5      1.880      2.871
REMARK  Name = HBX
REMARK  1 active torsions:
REMARK  status: ('A' for Active; 'I' for Inactive)
REMARK    1  A    between atoms: C_1  and  C_3
REMARK                            x       y       z     vdW  Elec       q    Type
REMARK                         _______ _______ _______ _____ _____    ______ ____
ROOT
ATOM      1  C   UNL     1     -42.068   7.836 103.959  0.00  0.00    +0.014 A 
ATOM      2  C   UNL     1     -43.339   7.917 103.382  0.00  0.00    +0.011 A 
ATOM      3  C   UNL     1     -43.606   7.237 102.211  0.00  0.00    +0.001 A 
ATOM      4  C   UNL     1     -42.621   6.468 101.615  0.00  0.00    +0.000 A 
ATOM      5  C   UNL     1     -41.363   6.378 102.183  0.00  0.00    +0.001 A 
ATOM      6  C   UNL     1     -41.079   7.056 103.350  0.00  0.00    +0.011 A 
ENDROOT
BRANCH   1   7
ATOM      7  C   UNL     1     -41.774   8.563 105.204  0.00  0.00    +0.258 C 
ATOM      8  O   UNL     1     -41.542   9.752 105.170  0.00  0.00    -0.296 OA
ENDBRANCH   1   7
TORSDOF 1
ENDMDL
MODEL 5
REMARK VINA RESULT:      -4.5      2.389      3.433
REMARK  Name = HBX
REMARK  1 active torsions:
REMARK  status: ('A' for Active; 'I' for Inactive)
REMARK    1  A    between atoms: C_1  and  C_3
REMARK                            x       y       z     vdW  Elec       q    Type
REMARK                         _______ _______ _______ _____ _____    ______ ____
ROOT
ATOM      1  C   UNL     1     -41.534   6.855 102.892  0.00  0.00    +0.014 A 
ATOM      2  C   UNL     1     -42.388   7.697 103.609  0.00  0.00    +0.011 A 
ATOM      3  C   UNL     1     -43.674   7.916 103.158  0.00  0.00    +0.001 A 
ATOM      4  C   UNL     1     -44.120   7.295 102.004  0.00  0.00    +0.000 A 
ATOM      5  C   UNL     1     -43.282   6.456 101.292  0.00  0.00    +0.001 A 
ATOM      6  C   UNL     1     -41.993   6.232 101.727  0.00  0.00    +0.011 A 
ENDROOT
BRANCH   1   7
ATOM      7  C   UNL     1     -40.159   6.621 103.363  0.00  0.00    +0.258 C 
ATOM      8  O   UNL     1     -39.721   5.492 103.416  0.00  0.00    -0.296 OA
ENDBRANCH   1   7
TORSDOF 1
ENDMDL
MODEL 6
REMARK VINA RESULT:      -4.5      1.777      2.855
REMARK  Name = HBX
REMARK  1 active torsions:
REMARK  status: ('A' for Active; 'I' for Inactive)
REMARK    1  A    between atoms: C_1  and  C_3
REMARK                            x       y       z     vdW  Elec       q    Type
REMARK                         _______ _______ _______ _____ _____    ______ ____
ROOT
ATOM      1  C   UNL     1     -41.783   6.457 102.077  0.00  0.00    +0.014 A 
ATOM      2  C   UNL     1     -43.055   7.026 102.183  0.00  0.00    +0.011 A 
ATOM      3  C   UNL     1     -43.351   7.853 103.247  0.00  0.00    +0.001 A 
ATOM      4  C   UNL     1     -42.387   8.128 104.202  0.00  0.00    +0.000 A 
ATOM      5  C   UNL     1     -41.124   7.574 104.101  0.00  0.00    +0.001 A 
ATOM      6  C   UNL     1     -40.815   6.740 103.046  0.00  0.00    +0.011 A 
ENDROOT
BRANCH   1   7
ATOM      7  C   UNL     1     -41.461   5.569 100.949  0.00  0.00    +0.258 C 
ATOM      8  O   UNL     1     -41.895   5.813  99.843  0.00  0.00    -0.296 OA
ENDBRANCH   1   7
TORSDOF 1
ENDMDL
MODEL 7
REMARK VINA RESULT:      -4.5      6.689      7.622
REMARK  Name = HBX
REMARK  1 active torsions:
REMARK  status: ('A' for Active; 'I' for Inactive)
REMARK    1  A    between atoms: C_1  and  C_3
REMARK                            x       y       z     vdW  Elec       q    Type
REMARK                         _______ _______ _______ _____ _____    ______ ____
ROOT
ATOM      1  C   UNL     1     -45.128   2.083  98.054  0.00  0.00    +0.014 A 
ATOM      2  C   UNL     1     -44.327   1.003  98.435  0.00  0.00    +0.011 A 
ATOM      3  C   UNL     1     -43.006   1.214  98.776  0.00  0.00    +0.001 A 
ATOM      4  C   UNL     1     -42.479   2.494  98.751  0.00  0.00    +0.000 A 
ATOM      5  C   UNL     1     -43.268   3.569  98.380  0.00  0.00    +0.001 A 
ATOM      6  C   UNL     1     -44.587   3.373  98.031  0.00  0.00    +0.011 A 
ENDROOT
BRANCH   1   7
ATOM      7  C   UNL     1     -46.536   1.865  97.683  0.00  0.00    +0.258 C 
ATOM      8  O   UNL     1     -47.135   0.904  98.119  0.00  0.00    -0.296 OA
ENDBRANCH   1   7
TORSDOF 1
ENDMDL
MODEL 8
REMARK VINA RESULT:      -4.4      2.534      3.525
REMARK  Name = HBX
REMARK  1 active torsions:
REMARK  status: ('A' for Active; 'I' for Inactive)
REMARK    1  A    between atoms: C_1  and  C_3
REMARK                            x       y       z     vdW  Elec       q    Type
REMARK                         _______ _______ _______ _____ _____    ______ ____
ROOT
ATOM      1  C   UNL     1     -41.133   7.714 104.296  0.00  0.00    +0.014 A 
ATOM      2  C   UNL     1     -42.449   8.185 104.288  0.00  0.00    +0.011 A 
ATOM      3  C   UNL     1     -43.296   7.839 103.255  0.00  0.00    +0.001 A 
ATOM      4  C   UNL     1     -42.847   7.019 102.234  0.00  0.00    +0.000 A 
ATOM      5  C   UNL     1     -41.547   6.545 102.238  0.00  0.00    +0.001 A 
ATOM      6  C   UNL     1     -40.687   6.886 103.260  0.00  0.00    +0.011 A 
ENDROOT
BRANCH   1   7
ATOM      7  C   UNL     1     -40.221   8.084 105.391  0.00  0.00    +0.258 C 
ATOM      8  O   UNL     1     -40.136   7.377 106.372  0.00  0.00    -0.296 OA
ENDBRANCH   1   7
TORSDOF 1
ENDMDL
MODEL 9
REMARK VINA RESULT:      -4.3      5.746      6.916
REMARK  Name = HBX
REMARK  1 active torsions:
REMARK  status: ('A' for Active; 'I' for Inactive)
REMARK    1  A    between atoms: C_1  and  C_3
REMARK                            x       y       z     vdW  Elec       q    Type
REMARK                         _______ _______ _______ _____ _____    ______ ____
ROOT
ATOM      1  C   UNL     1     -43.366   3.700  98.252  0.00  0.00    +0.014 A 
ATOM      2  C   UNL     1     -44.680   3.299  97.996  0.00  0.00    +0.011 A 
ATOM      3  C   UNL     1     -45.039   1.978  98.167  0.00  0.00    +0.001 A 
ATOM      4  C   UNL     1     -44.104   1.054  98.601  0.00  0.00    +0.000 A 
ATOM      5  C   UNL     1     -42.803   1.445  98.862  0.00  0.00    +0.001 A 
ATOM      6  C   UNL     1     -42.427   2.760  98.690  0.00  0.00    +0.011 A 
ENDROOT
BRANCH   1   7
ATOM      7  C   UNL     1     -42.972   5.106  98.066  0.00  0.00    +0.258 C 
ATOM      8  O   UNL     1     -43.084   5.627  96.977  0.00  0.00    -0.296 OA
ENDBRANCH   1   7
TORSDOF 1
ENDMDL
