MODEL 1
REMARK VINA RESULT:      -2.8      0.000      0.000
REMARK  Name = IPA
REMARK  3 active torsions:
REMARK  status: ('A' for Active; 'I' for Inactive)
REMARK    1  A    between atoms: C_1  and  C_2
REMARK    2  A    between atoms: C_2  and  C_3
REMARK    3  A    between atoms: C_2  and  O_4
REMARK                            x       y       z     vdW  Elec       q    Type
REMARK                         _______ _______ _______ _____ _____    ______ ____
ROOT
ATOM      1  C   UNL     1     -51.074  23.498  93.540  0.00  0.00    +0.037 C 
ATOM      2  C   UNL     1     -50.875  22.501  94.684  0.00  0.00    +0.108 C 
ATOM      3  C   UNL     1     -51.050  21.077  94.154  0.00  0.00    +0.037 C 
ENDROOT
BRANCH   2   4
ATOM      4  O   UNL     1     -49.561  22.651  95.223  0.00  0.00    -0.392 OA
ATOM      5  H   UNL     1     -49.036  21.840  95.212  0.00  0.00    +0.210 HD
ENDBRANCH   2   4
TORSDOF 1
ENDMDL
MODEL 2
REMARK VINA RESULT:      -2.7     17.345     17.757
REMARK  Name = IPA
REMARK  3 active torsions:
REMARK  status: ('A' for Active; 'I' for Inactive)
REMARK    1  A    between atoms: C_1  and  C_2
REMARK    2  A    between atoms: C_2  and  C_3
REMARK    3  A    between atoms: C_2  and  O_4
REMARK                            x       y       z     vdW  Elec       q    Type
REMARK                         _______ _______ _______ _____ _____    ______ ____
ROOT
ATOM      1  C   UNL     1     -44.617   6.616 101.308  0.00  0.00    +0.037 C 
ATOM      2  C   UNL     1     -44.666   7.828 102.240  0.00  0.00    +0.108 C 
ATOM      3  C   UNL     1     -43.440   7.818 103.155  0.00  0.00    +0.037 C 
ENDROOT
BRANCH   2   4
ATOM      4  O   UNL     1     -44.671   9.026 101.463  0.00  0.00    -0.392 OA
ATOM      5  H   UNL     1     -43.798   9.292 101.143  0.00  0.00    +0.210 HD
ENDBRANCH   2   4
TORSDOF 1
ENDMDL
MODEL 3
REMARK VINA RESULT:      -2.6     21.036     21.739
REMARK  Name = IPA
REMARK  3 active torsions:
REMARK  status: ('A' for Active; 'I' for Inactive)
REMARK    1  A    between atoms: C_1  and  C_2
REMARK    2  A    between atoms: C_2  and  C_3
REMARK    3  A    between atoms: C_2  and  O_4
REMARK                            x       y       z     vdW  Elec       q    Type
REMARK                         _______ _______ _______ _____ _____    ______ ____
ROOT
ATOM      1  C   UNL     1     -42.139   3.925  98.435  0.00  0.00    +0.037 C 
ATOM      2  C   UNL     1     -40.870   3.911  99.290  0.00  0.00    +0.108 C 
ATOM      3  C   UNL     1     -40.822   2.620 100.110  0.00  0.00    +0.037 C 
ENDROOT
BRANCH   2   4
ATOM      4  O   UNL     1     -39.723   3.980  98.442  0.00  0.00    -0.392 OA
ATOM      5  H   UNL     1     -39.814   3.486  97.617  0.00  0.00    +0.210 HD
ENDBRANCH   2   4
TORSDOF 1
ENDMDL
MODEL 4
REMARK VINA RESULT:      -2.6      0.686      1.786
REMARK  Name = IPA
REMARK  3 active torsions:
REMARK  status: ('A' for Active; 'I' for Inactive)
REMARK    1  A    between atoms: C_1  and  C_2
REMARK    2  A    between atoms: C_2  and  C_3
REMARK    3  A    between atoms: C_2  and  O_4
REMARK                            x       y       z     vdW  Elec       q    Type
REMARK                         _______ _______ _______ _____ _____    ______ ____
ROOT
ATOM      1  C   UNL     1     -51.818  21.806  95.260  0.00  0.00    +0.037 C 
ATOM      2  C   UNL     1     -50.649  22.293  94.402  0.00  0.00    +0.108 C 
ATOM      3  C   UNL     1     -51.093  23.497  93.570  0.00  0.00    +0.037 C 
ENDROOT
BRANCH   2   4
ATOM      4  O   UNL     1     -49.563  22.672  95.248  0.00  0.00    -0.392 OA
ATOM      5  H   UNL     1     -49.778  23.379  95.871  0.00  0.00    +0.210 HD
ENDBRANCH   2   4
TORSDOF 1
ENDMDL
MODEL 5
REMARK VINA RESULT:      -2.6     22.289     22.792
REMARK  Name = IPA
REMARK  3 active torsions:
REMARK  status: ('A' for Active; 'I' for Inactive)
REMARK    1  A    between atoms: C_1  and  C_2
REMARK    2  A    between atoms: C_2  and  C_3
REMARK    3  A    between atoms: C_2  and  O_4
REMARK                            x       y       z     vdW  Elec       q    Type
REMARK                         _______ _______ _______ _____ _____    ______ ____
ROOT
ATOM      1  C   UNL     1     -41.474   2.230 100.119  0.00  0.00    +0.037 C 
ATOM      2  C   UNL     1     -40.473   3.281 100.603  0.00  0.00    +0.108 C 
ATOM      3  C   UNL     1     -41.164   4.231 101.582  0.00  0.00    +0.037 C 
ENDROOT
BRANCH   2   4
ATOM      4  O   UNL     1     -39.382   2.633 101.258  0.00  0.00    -0.392 OA
ATOM      5  H   UNL     1     -38.533   2.740 100.808  0.00  0.00    +0.210 HD
ENDBRANCH   2   4
TORSDOF 1
ENDMDL
MODEL 6
REMARK VINA RESULT:      -2.6     23.729     24.101
REMARK  Name = IPA
REMARK  3 active torsions:
REMARK  status: ('A' for Active; 'I' for Inactive)
REMARK    1  A    between atoms: C_1  and  C_2
REMARK    2  A    between atoms: C_2  and  C_3
REMARK    3  A    between atoms: C_2  and  O_4
REMARK                            x       y       z     vdW  Elec       q    Type
REMARK                         _______ _______ _______ _____ _____    ______ ____
ROOT
ATOM      1  C   UNL     1     -33.840  16.352 111.718  0.00  0.00    +0.037 C 
ATOM      2  C   UNL     1     -34.539  17.656 111.327  0.00  0.00    +0.108 C 
ATOM      3  C   UNL     1     -36.055  17.464 111.398  0.00  0.00    +0.037 C 
ENDROOT
BRANCH   2   4
ATOM      4  O   UNL     1     -34.146  18.695 112.225  0.00  0.00    -0.392 OA
ATOM      5  H   UNL     1     -34.883  19.222 112.563  0.00  0.00    +0.210 HD
ENDBRANCH   2   4
TORSDOF 1
ENDMDL
MODEL 7
REMARK VINA RESULT:      -2.5     23.462     24.108
REMARK  Name = IPA
REMARK  3 active torsions:
REMARK  status: ('A' for Active; 'I' for Inactive)
REMARK    1  A    between atoms: C_1  and  C_2
REMARK    2  A    between atoms: C_2  and  C_3
REMARK    3  A    between atoms: C_2  and  O_4
REMARK                            x       y       z     vdW  Elec       q    Type
REMARK                         _______ _______ _______ _____ _____    ______ ____
ROOT
ATOM      1  C   UNL     1     -39.359   6.513 106.398  0.00  0.00    +0.037 C 
ATOM      2  C   UNL     1     -38.764   5.106 106.497  0.00  0.00    +0.108 C 
ATOM      3  C   UNL     1     -39.357   4.385 107.708  0.00  0.00    +0.037 C 
ENDROOT
BRANCH   2   4
ATOM      4  O   UNL     1     -39.071   4.375 105.309  0.00  0.00    -0.392 OA
ATOM      5  H   UNL     1     -39.922   3.917 105.338  0.00  0.00    +0.210 HD
ENDBRANCH   2   4
TORSDOF 1
ENDMDL
MODEL 8
REMARK VINA RESULT:      -2.5     18.362     18.833
REMARK  Name = IPA
REMARK  3 active torsions:
REMARK  status: ('A' for Active; 'I' for Inactive)
REMARK    1  A    between atoms: C_1  and  C_2
REMARK    2  A    between atoms: C_2  and  C_3
REMARK    3  A    between atoms: C_2  and  O_4
REMARK                            x       y       z     vdW  Elec       q    Type
REMARK                         _______ _______ _______ _____ _____    ______ ____
ROOT
ATOM      1  C   UNL     1     -42.521   4.830  98.522  0.00  0.00    +0.037 C 
ATOM      2  C   UNL     1     -42.481   6.359  98.470  0.00  0.00    +0.108 C 
ATOM      3  C   UNL     1     -41.132   6.852  98.996  0.00  0.00    +0.037 C 
ENDROOT
BRANCH   2   4
ATOM      4  O   UNL     1     -42.655   6.795  97.121  0.00  0.00    -0.392 OA
ATOM      5  H   UNL     1     -41.896   7.272  96.760  0.00  0.00    +0.210 HD
ENDBRANCH   2   4
TORSDOF 1
ENDMDL
MODEL 9
REMARK VINA RESULT:      -2.4     21.582     21.955
REMARK  Name = IPA
REMARK  3 active torsions:
REMARK  status: ('A' for Active; 'I' for Inactive)
REMARK    1  A    between atoms: C_1  and  C_2
REMARK    2  A    between atoms: C_2  and  C_3
REMARK    3  A    between atoms: C_2  and  O_4
REMARK                            x       y       z     vdW  Elec       q    Type
REMARK                         _______ _______ _______ _____ _____    ______ ____
ROOT
ATOM      1  C   UNL     1     -35.322  18.073 111.234  0.00  0.00    +0.037 C 
ATOM      2  C   UNL     1     -35.468  18.299 109.727  0.00  0.00    +0.108 C 
ATOM      3  C   UNL     1     -36.888  17.936 109.292  0.00  0.00    +0.037 C 
ENDROOT
BRANCH   2   4
ATOM      4  O   UNL     1     -35.212  19.671 109.425  0.00  0.00    -0.392 OA
ATOM      5  H   UNL     1     -34.948  19.830 108.509  0.00  0.00    +0.210 HD
ENDBRANCH   2   4
TORSDOF 1
ENDMDL
