MODEL 1
REMARK VINA RESULT:      -4.3      0.000      0.000
REMARK  Name = IPH
REMARK  1 active torsions:
REMARK  status: ('A' for Active; 'I' for Inactive)
REMARK    1  A    between atoms: C_1  and  O_7
REMARK                            x       y       z     vdW  Elec       q    Type
REMARK                         _______ _______ _______ _____ _____    ______ ____
ROOT
ATOM      1  C   UNL     1     -44.266   6.482 101.037  0.00  0.00    +0.117 A 
ATOM      2  C   UNL     1     -44.919   7.316 101.932  0.00  0.00    +0.045 A 
ATOM      3  C   UNL     1     -44.224   7.878 102.984  0.00  0.00    +0.004 A 
ATOM      4  C   UNL     1     -42.874   7.621 103.138  0.00  0.00    +0.000 A 
ATOM      5  C   UNL     1     -42.220   6.793 102.244  0.00  0.00    +0.004 A 
ATOM      6  C   UNL     1     -42.913   6.225 101.194  0.00  0.00    +0.045 A 
ENDROOT
BRANCH   1   7
ATOM      7  O   UNL     1     -44.950   5.923 100.003  0.00  0.00    -0.507 OA
ATOM      8  H   UNL     1     -44.488   5.108  99.771  0.00  0.00    +0.292 HD
ENDBRANCH   1   7
TORSDOF 1
ENDMDL
MODEL 2
REMARK VINA RESULT:      -4.3     18.033     18.835
REMARK  Name = IPH
REMARK  1 active torsions:
REMARK  status: ('A' for Active; 'I' for Inactive)
REMARK    1  A    between atoms: C_1  and  O_7
REMARK                            x       y       z     vdW  Elec       q    Type
REMARK                         _______ _______ _______ _____ _____    ______ ____
ROOT
ATOM      1  C   UNL     1     -50.539  22.288  94.583  0.00  0.00    +0.117 A 
ATOM      2  C   UNL     1     -51.002  20.982  94.626  0.00  0.00    +0.045 A 
ATOM      3  C   UNL     1     -52.048  20.593  93.815  0.00  0.00    +0.004 A 
ATOM      4  C   UNL     1     -52.628  21.503  92.949  0.00  0.00    +0.000 A 
ATOM      5  C   UNL     1     -52.165  22.805  92.901  0.00  0.00    +0.004 A 
ATOM      6  C   UNL     1     -51.122  23.199  93.715  0.00  0.00    +0.045 A 
ENDROOT
BRANCH   1   7
ATOM      7  O   UNL     1     -49.512  22.674  95.386  0.00  0.00    -0.507 OA
ATOM      8  H   UNL     1     -48.718  22.235  95.054  0.00  0.00    +0.292 HD
ENDBRANCH   1   7
TORSDOF 1
ENDMDL
MODEL 3
REMARK VINA RESULT:      -4.2      2.931      3.761
REMARK  Name = IPH
REMARK  1 active torsions:
REMARK  status: ('A' for Active; 'I' for Inactive)
REMARK    1  A    between atoms: C_1  and  O_7
REMARK                            x       y       z     vdW  Elec       q    Type
REMARK                         _______ _______ _______ _____ _____    ______ ____
ROOT
ATOM      1  C   UNL     1     -40.476   6.976 103.471  0.00  0.00    +0.117 A 
ATOM      2  C   UNL     1     -41.005   7.789 104.462  0.00  0.00    +0.045 A 
ATOM      3  C   UNL     1     -42.317   8.209 104.382  0.00  0.00    +0.004 A 
ATOM      4  C   UNL     1     -43.109   7.810 103.321  0.00  0.00    +0.000 A 
ATOM      5  C   UNL     1     -42.584   6.995 102.334  0.00  0.00    +0.004 A 
ATOM      6  C   UNL     1     -41.271   6.577 102.408  0.00  0.00    +0.045 A 
ENDROOT
BRANCH   1   7
ATOM      7  O   UNL     1     -39.182   6.565 103.546  0.00  0.00    -0.507 OA
ATOM      8  H   UNL     1     -38.825   6.915 104.372  0.00  0.00    +0.292 HD
ENDBRANCH   1   7
TORSDOF 1
ENDMDL
MODEL 4
REMARK VINA RESULT:      -4.1     17.921     18.701
REMARK  Name = IPH
REMARK  1 active torsions:
REMARK  status: ('A' for Active; 'I' for Inactive)
REMARK    1  A    between atoms: C_1  and  O_7
REMARK                            x       y       z     vdW  Elec       q    Type
REMARK                         _______ _______ _______ _____ _____    ______ ____
ROOT
ATOM      1  C   UNL     1     -50.917  21.339  94.716  0.00  0.00    +0.117 A 
ATOM      2  C   UNL     1     -50.574  22.660  94.469  0.00  0.00    +0.045 A 
ATOM      3  C   UNL     1     -51.236  23.372  93.489  0.00  0.00    +0.004 A 
ATOM      4  C   UNL     1     -52.249  22.774  92.763  0.00  0.00    +0.000 A 
ATOM      5  C   UNL     1     -52.596  21.459  93.011  0.00  0.00    +0.004 A 
ATOM      6  C   UNL     1     -51.933  20.741  93.986  0.00  0.00    +0.045 A 
ENDROOT
BRANCH   1   7
ATOM      7  O   UNL     1     -50.263  20.634  95.677  0.00  0.00    -0.507 OA
ATOM      8  H   UNL     1     -50.596  20.946  96.528  0.00  0.00    +0.292 HD
ENDBRANCH   1   7
TORSDOF 1
ENDMDL
MODEL 5
REMARK VINA RESULT:      -4.1      2.114      2.547
REMARK  Name = IPH
REMARK  1 active torsions:
REMARK  status: ('A' for Active; 'I' for Inactive)
REMARK    1  A    between atoms: C_1  and  O_7
REMARK                            x       y       z     vdW  Elec       q    Type
REMARK                         _______ _______ _______ _____ _____    ______ ____
ROOT
ATOM      1  C   UNL     1     -42.567   7.511  99.323  0.00  0.00    +0.117 A 
ATOM      2  C   UNL     1     -43.367   7.704 100.439  0.00  0.00    +0.045 A 
ATOM      3  C   UNL     1     -43.201   6.908 101.554  0.00  0.00    +0.004 A 
ATOM      4  C   UNL     1     -42.229   5.924 101.564  0.00  0.00    +0.000 A 
ATOM      5  C   UNL     1     -41.426   5.732 100.454  0.00  0.00    +0.004 A 
ATOM      6  C   UNL     1     -41.593   6.523  99.335  0.00  0.00    +0.045 A 
ENDROOT
BRANCH   1   7
ATOM      7  O   UNL     1     -42.733   8.290  98.222  0.00  0.00    -0.507 OA
ATOM      8  H   UNL     1     -42.426   7.774  97.465  0.00  0.00    +0.292 HD
ENDBRANCH   1   7
TORSDOF 1
ENDMDL
MODEL 6
REMARK VINA RESULT:      -4.0      4.071      5.190
REMARK  Name = IPH
REMARK  1 active torsions:
REMARK  status: ('A' for Active; 'I' for Inactive)
REMARK    1  A    between atoms: C_1  and  O_7
REMARK                            x       y       z     vdW  Elec       q    Type
REMARK                         _______ _______ _______ _____ _____    ______ ____
ROOT
ATOM      1  C   UNL     1     -40.579   3.059 100.768  0.00  0.00    +0.117 A 
ATOM      2  C   UNL     1     -41.107   4.330 100.937  0.00  0.00    +0.045 A 
ATOM      3  C   UNL     1     -42.329   4.650 100.380  0.00  0.00    +0.004 A 
ATOM      4  C   UNL     1     -43.034   3.699  99.665  0.00  0.00    +0.000 A 
ATOM      5  C   UNL     1     -42.512   2.429  99.500  0.00  0.00    +0.004 A 
ATOM      6  C   UNL     1     -41.288   2.107 100.050  0.00  0.00    +0.045 A 
ENDROOT
BRANCH   1   7
ATOM      7  O   UNL     1     -39.374   2.745 101.311  0.00  0.00    -0.507 OA
ATOM      8  H   UNL     1     -38.716   3.299 100.871  0.00  0.00    +0.292 HD
ENDBRANCH   1   7
TORSDOF 1
ENDMDL
MODEL 7
REMARK VINA RESULT:      -4.0      1.715      2.773
REMARK  Name = IPH
REMARK  1 active torsions:
REMARK  status: ('A' for Active; 'I' for Inactive)
REMARK    1  A    between atoms: C_1  and  O_7
REMARK                            x       y       z     vdW  Elec       q    Type
REMARK                         _______ _______ _______ _____ _____    ______ ____
ROOT
ATOM      1  C   UNL     1     -43.405   7.632 102.883  0.00  0.00    +0.117 A 
ATOM      2  C   UNL     1     -42.795   6.811 101.946  0.00  0.00    +0.045 A 
ATOM      3  C   UNL     1     -41.476   6.439 102.110  0.00  0.00    +0.004 A 
ATOM      4  C   UNL     1     -40.766   6.873 103.214  0.00  0.00    +0.000 A 
ATOM      5  C   UNL     1     -41.374   7.687 104.153  0.00  0.00    +0.004 A 
ATOM      6  C   UNL     1     -42.691   8.066 103.989  0.00  0.00    +0.045 A 
ENDROOT
BRANCH   1   7
ATOM      7  O   UNL     1     -44.702   8.004 102.720  0.00  0.00    -0.507 OA
ATOM      8  H   UNL     1     -45.067   8.139 103.605  0.00  0.00    +0.292 HD
ENDBRANCH   1   7
TORSDOF 1
ENDMDL
MODEL 8
REMARK VINA RESULT:      -4.0      2.141      3.331
REMARK  Name = IPH
REMARK  1 active torsions:
REMARK  status: ('A' for Active; 'I' for Inactive)
REMARK    1  A    between atoms: C_1  and  O_7
REMARK                            x       y       z     vdW  Elec       q    Type
REMARK                         _______ _______ _______ _____ _____    ______ ____
ROOT
ATOM      1  C   UNL     1     -42.863   7.676 103.298  0.00  0.00    +0.117 A 
ATOM      2  C   UNL     1     -42.074   6.863 102.498  0.00  0.00    +0.045 A 
ATOM      3  C   UNL     1     -42.618   6.249 101.389  0.00  0.00    +0.004 A 
ATOM      4  C   UNL     1     -43.948   6.454 101.067  0.00  0.00    +0.000 A 
ATOM      5  C   UNL     1     -44.735   7.268 101.860  0.00  0.00    +0.004 A 
ATOM      6  C   UNL     1     -44.196   7.879 102.973  0.00  0.00    +0.045 A 
ENDROOT
BRANCH   1   7
ATOM      7  O   UNL     1     -42.330   8.278 104.394  0.00  0.00    -0.507 OA
ATOM      8  H   UNL     1     -41.433   7.933 104.493  0.00  0.00    +0.292 HD
ENDBRANCH   1   7
TORSDOF 1
ENDMDL
MODEL 9
REMARK VINA RESULT:      -3.9      9.174     10.172
REMARK  Name = IPH
REMARK  1 active torsions:
REMARK  status: ('A' for Active; 'I' for Inactive)
REMARK    1  A    between atoms: C_1  and  O_7
REMARK                            x       y       z     vdW  Elec       q    Type
REMARK                         _______ _______ _______ _____ _____    ______ ____
ROOT
ATOM      1  C   UNL     1     -53.684   4.257  97.889  0.00  0.00    +0.117 A 
ATOM      2  C   UNL     1     -52.973   5.430  97.683  0.00  0.00    +0.045 A 
ATOM      3  C   UNL     1     -51.603   5.445  97.848  0.00  0.00    +0.004 A 
ATOM      4  C   UNL     1     -50.936   4.288  98.207  0.00  0.00    +0.000 A 
ATOM      5  C   UNL     1     -51.642   3.116  98.409  0.00  0.00    +0.004 A 
ATOM      6  C   UNL     1     -53.013   3.099  98.250  0.00  0.00    +0.045 A 
ENDROOT
BRANCH   1   7
ATOM      7  O   UNL     1     -55.034   4.242  97.733  0.00  0.00    -0.507 OA
ATOM      8  H   UNL     1     -55.404   4.778  98.446  0.00  0.00    +0.292 HD
ENDBRANCH   1   7
TORSDOF 1
ENDMDL
