MODEL 1
REMARK VINA RESULT:      -1.9      0.000      0.000
REMARK  Name = NME
REMARK  1 active torsions:
REMARK  status: ('A' for Active; 'I' for Inactive)
REMARK    1  A    between atoms: N_1  and  C_2
REMARK                            x       y       z     vdW  Elec       q    Type
REMARK                         _______ _______ _______ _____ _____    ______ ____
ROOT
ATOM      1  N   UNL     1     -42.650   8.188  98.300  0.00  0.00    -0.333 NA
ATOM      2  H   UNL     1     -43.341   8.883  98.062  0.00  0.00    +0.118 HD
ATOM      3  H   UNL     1     -42.648   7.436  97.626  0.00  0.00    +0.118 HD
ATOM      4  C   UNL     1     -42.863   7.676  99.660  0.00  0.00    +0.097 C 
ENDROOT
TORSDOF 0
ENDMDL
MODEL 2
REMARK VINA RESULT:      -1.9      2.162      2.162
REMARK  Name = NME
REMARK  1 active torsions:
REMARK  status: ('A' for Active; 'I' for Inactive)
REMARK    1  A    between atoms: N_1  and  C_2
REMARK                            x       y       z     vdW  Elec       q    Type
REMARK                         _______ _______ _______ _____ _____    ______ ____
ROOT
ATOM      1  N   UNL     1     -40.436   7.818  98.044  0.00  0.00    -0.333 NA
ATOM      2  H   UNL     1     -39.442   7.889  98.205  0.00  0.00    +0.118 HD
ATOM      3  H   UNL     1     -40.871   8.729  98.065  0.00  0.00    +0.118 HD
ATOM      4  C   UNL     1     -41.063   6.912  99.016  0.00  0.00    +0.097 C 
ENDROOT
TORSDOF 0
ENDMDL
MODEL 3
REMARK VINA RESULT:      -1.8      8.580      8.580
REMARK  Name = NME
REMARK  1 active torsions:
REMARK  status: ('A' for Active; 'I' for Inactive)
REMARK    1  A    between atoms: N_1  and  C_2
REMARK                            x       y       z     vdW  Elec       q    Type
REMARK                         _______ _______ _______ _____ _____    ______ ____
ROOT
ATOM      1  N   UNL     1     -41.685  15.903 100.698  0.00  0.00    -0.333 NA
ATOM      2  H   UNL     1     -41.156  16.007  99.845  0.00  0.00    +0.118 HD
ATOM      3  H   UNL     1     -42.499  16.500 100.693  0.00  0.00    +0.118 HD
ATOM      4  C   UNL     1     -40.846  16.165 101.875  0.00  0.00    +0.097 C 
ENDROOT
TORSDOF 0
ENDMDL
MODEL 4
REMARK VINA RESULT:      -1.8      9.001      9.001
REMARK  Name = NME
REMARK  1 active torsions:
REMARK  status: ('A' for Active; 'I' for Inactive)
REMARK    1  A    between atoms: N_1  and  C_2
REMARK                            x       y       z     vdW  Elec       q    Type
REMARK                         _______ _______ _______ _____ _____    ______ ____
ROOT
ATOM      1  N   UNL     1     -38.062   1.759 101.826  0.00  0.00    -0.333 NA
ATOM      2  H   UNL     1     -37.569   2.466 102.351  0.00  0.00    +0.118 HD
ATOM      3  H   UNL     1     -39.046   1.762 102.052  0.00  0.00    +0.118 HD
ATOM      4  C   UNL     1     -37.475   0.431 102.050  0.00  0.00    +0.097 C 
ENDROOT
TORSDOF 0
ENDMDL
MODEL 5
REMARK VINA RESULT:      -1.7      3.494      3.494
REMARK  Name = NME
REMARK  1 active torsions:
REMARK  status: ('A' for Active; 'I' for Inactive)
REMARK    1  A    between atoms: N_1  and  C_2
REMARK                            x       y       z     vdW  Elec       q    Type
REMARK                         _______ _______ _______ _____ _____    ______ ____
ROOT
ATOM      1  N   UNL     1     -43.250   5.786  96.062  0.00  0.00    -0.333 NA
ATOM      2  H   UNL     1     -42.372   6.279  95.997  0.00  0.00    +0.118 HD
ATOM      3  H   UNL     1     -44.028   6.429  96.032  0.00  0.00    +0.118 HD
ATOM      4  C   UNL     1     -43.299   4.956  97.274  0.00  0.00    +0.097 C 
ENDROOT
TORSDOF 0
ENDMDL
MODEL 6
REMARK VINA RESULT:      -1.7      4.842      4.842
REMARK  Name = NME
REMARK  1 active torsions:
REMARK  status: ('A' for Active; 'I' for Inactive)
REMARK    1  A    between atoms: N_1  and  C_2
REMARK                            x       y       z     vdW  Elec       q    Type
REMARK                         _______ _______ _______ _____ _____    ______ ____
ROOT
ATOM      1  N   UNL     1     -39.681   3.944  98.331  0.00  0.00    -0.333 NA
ATOM      2  H   UNL     1     -38.827   3.637  98.772  0.00  0.00    +0.118 HD
ATOM      3  H   UNL     1     -39.621   4.916  98.066  0.00  0.00    +0.118 HD
ATOM      4  C   UNL     1     -40.839   3.708  99.204  0.00  0.00    +0.097 C 
ENDROOT
TORSDOF 0
ENDMDL
MODEL 7
REMARK VINA RESULT:      -1.7     12.860     12.860
REMARK  Name = NME
REMARK  1 active torsions:
REMARK  status: ('A' for Active; 'I' for Inactive)
REMARK    1  A    between atoms: N_1  and  C_2
REMARK                            x       y       z     vdW  Elec       q    Type
REMARK                         _______ _______ _______ _____ _____    ______ ____
ROOT
ATOM      1  N   UNL     1     -38.459   3.878 111.046  0.00  0.00    -0.333 NA
ATOM      2  H   UNL     1     -38.489   4.803 111.447  0.00  0.00    +0.118 HD
ATOM      3  H   UNL     1     -37.679   3.351 111.412  0.00  0.00    +0.118 HD
ATOM      4  C   UNL     1     -38.409   3.941 109.579  0.00  0.00    +0.097 C 
ENDROOT
TORSDOF 0
ENDMDL
MODEL 8
REMARK VINA RESULT:      -1.6     10.436     10.436
REMARK  Name = NME
REMARK  1 active torsions:
REMARK  status: ('A' for Active; 'I' for Inactive)
REMARK    1  A    between atoms: N_1  and  C_2
REMARK                            x       y       z     vdW  Elec       q    Type
REMARK                         _______ _______ _______ _____ _____    ______ ____
ROOT
ATOM      1  N   UNL     1     -52.347   5.581  96.424  0.00  0.00    -0.333 NA
ATOM      2  H   UNL     1     -51.667   6.222  96.803  0.00  0.00    +0.118 HD
ATOM      3  H   UNL     1     -53.111   6.080  95.990  0.00  0.00    +0.118 HD
ATOM      4  C   UNL     1     -52.839   4.661  97.458  0.00  0.00    +0.097 C 
ENDROOT
TORSDOF 0
ENDMDL
MODEL 9
REMARK VINA RESULT:      -1.6      6.451      6.451
REMARK  Name = NME
REMARK  1 active torsions:
REMARK  status: ('A' for Active; 'I' for Inactive)
REMARK    1  A    between atoms: N_1  and  C_2
REMARK                            x       y       z     vdW  Elec       q    Type
REMARK                         _______ _______ _______ _____ _____    ______ ____
ROOT
ATOM      1  N   UNL     1     -48.733   6.212  97.571  0.00  0.00    -0.333 NA
ATOM      2  H   UNL     1     -49.590   6.737  97.656  0.00  0.00    +0.118 HD
ATOM      3  H   UNL     1     -48.613   5.867  96.630  0.00  0.00    +0.118 HD
ATOM      4  C   UNL     1     -48.691   5.112  98.544  0.00  0.00    +0.097 C 
ENDROOT
TORSDOF 0
ENDMDL
