MODEL 1
REMARK VINA RESULT:      -1.9      0.000      0.000
REMARK  Name = 2F2
REMARK  2 active torsions:
REMARK  status: ('A' for Active; 'I' for Inactive)
REMARK    1  A    between atoms: C_1  and  O_2
REMARK    2  A    between atoms: O_2  and  C_3
REMARK                            x       y       z     vdW  Elec       q    Type
REMARK                         _______ _______ _______ _____ _____    ______ ____
ROOT
ATOM      1  C   UNL     1       7.635  28.875  77.262  0.00  0.00    +0.193 C 
ATOM      2  O   UNL     1       8.615  27.951  76.785  0.00  0.00    -0.386 OA
ATOM      3  C   UNL     1       9.508  28.500  75.813  0.00  0.00    +0.193 C 
ENDROOT
TORSDOF 0
ENDMDL
MODEL 2
REMARK VINA RESULT:      -1.9      0.178      1.958
REMARK  Name = 2F2
REMARK  2 active torsions:
REMARK  status: ('A' for Active; 'I' for Inactive)
REMARK    1  A    between atoms: C_1  and  O_2
REMARK    2  A    between atoms: O_2  and  C_3
REMARK                            x       y       z     vdW  Elec       q    Type
REMARK                         _______ _______ _______ _____ _____    ______ ____
ROOT
ATOM      1  C   UNL     1       9.551  28.766  75.846  0.00  0.00    +0.193 C 
ATOM      2  O   UNL     1       8.654  28.052  76.699  0.00  0.00    -0.386 OA
ATOM      3  C   UNL     1       7.598  28.853  77.236  0.00  0.00    +0.193 C 
ENDROOT
TORSDOF 0
ENDMDL
MODEL 3
REMARK VINA RESULT:      -1.8     25.136     25.430
REMARK  Name = 2F2
REMARK  2 active torsions:
REMARK  status: ('A' for Active; 'I' for Inactive)
REMARK    1  A    between atoms: C_1  and  O_2
REMARK    2  A    between atoms: O_2  and  C_3
REMARK                            x       y       z     vdW  Elec       q    Type
REMARK                         _______ _______ _______ _____ _____    ______ ____
ROOT
ATOM      1  C   UNL     1     -11.345  16.623  88.532  0.00  0.00    +0.193 C 
ATOM      2  O   UNL     1      -9.952  16.308  88.591  0.00  0.00    -0.386 OA
ATOM      3  C   UNL     1      -9.567  15.214  87.757  0.00  0.00    +0.193 C 
ENDROOT
TORSDOF 0
ENDMDL
MODEL 4
REMARK VINA RESULT:      -1.7      1.850      2.249
REMARK  Name = 2F2
REMARK  2 active torsions:
REMARK  status: ('A' for Active; 'I' for Inactive)
REMARK    1  A    between atoms: C_1  and  O_2
REMARK    2  A    between atoms: O_2  and  C_3
REMARK                            x       y       z     vdW  Elec       q    Type
REMARK                         _______ _______ _______ _____ _____    ______ ____
ROOT
ATOM      1  C   UNL     1      10.797  28.251  77.660  0.00  0.00    +0.193 C 
ATOM      2  O   UNL     1      10.638  28.215  76.240  0.00  0.00    -0.386 OA
ATOM      3  C   UNL     1       9.479  28.902  75.766  0.00  0.00    +0.193 C 
ENDROOT
TORSDOF 0
ENDMDL
MODEL 5
REMARK VINA RESULT:      -1.7     17.576     17.609
REMARK  Name = 2F2
REMARK  2 active torsions:
REMARK  status: ('A' for Active; 'I' for Inactive)
REMARK    1  A    between atoms: C_1  and  O_2
REMARK    2  A    between atoms: O_2  and  C_3
REMARK                            x       y       z     vdW  Elec       q    Type
REMARK                         _______ _______ _______ _____ _____    ______ ____
ROOT
ATOM      1  C   UNL     1      16.170  23.591  61.712  0.00  0.00    +0.193 C 
ATOM      2  O   UNL     1      17.551  23.463  62.057  0.00  0.00    -0.386 OA
ATOM      3  C   UNL     1      17.825  22.410  62.984  0.00  0.00    +0.193 C 
ENDROOT
TORSDOF 0
ENDMDL
MODEL 6
REMARK VINA RESULT:      -1.7     22.106     22.227
REMARK  Name = 2F2
REMARK  2 active torsions:
REMARK  status: ('A' for Active; 'I' for Inactive)
REMARK    1  A    between atoms: C_1  and  O_2
REMARK    2  A    between atoms: O_2  and  C_3
REMARK                            x       y       z     vdW  Elec       q    Type
REMARK                         _______ _______ _______ _____ _____    ______ ____
ROOT
ATOM      1  C   UNL     1      -8.186  34.467  61.645  0.00  0.00    +0.193 C 
ATOM      2  O   UNL     1      -6.869  34.727  62.135  0.00  0.00    -0.386 OA
ATOM      3  C   UNL     1      -5.972  33.622  62.010  0.00  0.00    +0.193 C 
ENDROOT
TORSDOF 0
ENDMDL
MODEL 7
REMARK VINA RESULT:      -1.7     13.291     13.291
REMARK  Name = 2F2
REMARK  2 active torsions:
REMARK  status: ('A' for Active; 'I' for Inactive)
REMARK    1  A    between atoms: C_1  and  O_2
REMARK    2  A    between atoms: O_2  and  C_3
REMARK                            x       y       z     vdW  Elec       q    Type
REMARK                         _______ _______ _______ _____ _____    ______ ____
ROOT
ATOM      1  C   UNL     1       9.630  40.721  76.716  0.00  0.00    +0.193 C 
ATOM      2  O   UNL     1      10.823  41.396  76.312  0.00  0.00    -0.386 OA
ATOM      3  C   UNL     1      10.591  42.580  75.546  0.00  0.00    +0.193 C 
ENDROOT
TORSDOF 0
ENDMDL
MODEL 8
REMARK VINA RESULT:      -1.7     13.495     13.555
REMARK  Name = 2F2
REMARK  2 active torsions:
REMARK  status: ('A' for Active; 'I' for Inactive)
REMARK    1  A    between atoms: C_1  and  O_2
REMARK    2  A    between atoms: O_2  and  C_3
REMARK                            x       y       z     vdW  Elec       q    Type
REMARK                         _______ _______ _______ _____ _____    ______ ____
ROOT
ATOM      1  C   UNL     1      10.252  42.970  75.516  0.00  0.00    +0.193 C 
ATOM      2  O   UNL     1      10.199  41.552  75.348  0.00  0.00    -0.386 OA
ATOM      3  C   UNL     1       9.645  40.854  76.466  0.00  0.00    +0.193 C 
ENDROOT
TORSDOF 0
ENDMDL
MODEL 9
REMARK VINA RESULT:      -1.6     12.409     12.442
REMARK  Name = 2F2
REMARK  2 active torsions:
REMARK  status: ('A' for Active; 'I' for Inactive)
REMARK    1  A    between atoms: C_1  and  O_2
REMARK    2  A    between atoms: O_2  and  C_3
REMARK                            x       y       z     vdW  Elec       q    Type
REMARK                         _______ _______ _______ _____ _____    ______ ____
ROOT
ATOM      1  C   UNL     1      15.859  34.100  83.718  0.00  0.00    +0.193 C 
ATOM      2  O   UNL     1      16.990  33.263  83.971  0.00  0.00    -0.386 OA
ATOM      3  C   UNL     1      17.512  33.375  85.297  0.00  0.00    +0.193 C 
ENDROOT
TORSDOF 0
ENDMDL
