MODEL 1
REMARK VINA RESULT:      -2.3      0.000      0.000
REMARK  Name = ACE
REMARK  1 active torsions:
REMARK  status: ('A' for Active; 'I' for Inactive)
REMARK    1  A    between atoms: C_1  and  C_3
REMARK                            x       y       z     vdW  Elec       q    Type
REMARK                         _______ _______ _______ _____ _____    ______ ____
ROOT
ATOM      1  C   UNL     1       9.192  28.715  77.140  0.00  0.00    +0.220 C 
ATOM      2  C   UNL     1       7.696  28.819  77.287  0.00  0.00    +0.082 C 
ATOM      3  O   UNL     1       9.916  29.182  77.985  0.00  0.00    -0.301 OA
ENDROOT
TORSDOF 0
ENDMDL
MODEL 2
REMARK VINA RESULT:      -2.3      1.766      2.133
REMARK  Name = ACE
REMARK  1 active torsions:
REMARK  status: ('A' for Active; 'I' for Inactive)
REMARK    1  A    between atoms: C_1  and  C_3
REMARK                            x       y       z     vdW  Elec       q    Type
REMARK                         _______ _______ _______ _____ _____    ______ ____
ROOT
ATOM      1  C   UNL     1       8.649  28.394  76.716  0.00  0.00    +0.220 C 
ATOM      2  C   UNL     1       9.736  28.787  75.749  0.00  0.00    +0.082 C 
ATOM      3  O   UNL     1       7.649  29.065  76.805  0.00  0.00    -0.301 OA
ENDROOT
TORSDOF 0
ENDMDL
MODEL 3
REMARK VINA RESULT:      -2.2      2.354      2.400
REMARK  Name = ACE
REMARK  1 active torsions:
REMARK  status: ('A' for Active; 'I' for Inactive)
REMARK    1  A    between atoms: C_1  and  C_3
REMARK                            x       y       z     vdW  Elec       q    Type
REMARK                         _______ _______ _______ _____ _____    ______ ____
ROOT
ATOM      1  C   UNL     1      10.339  28.304  76.146  0.00  0.00    +0.220 C 
ATOM      2  C   UNL     1      10.428  28.514  77.636  0.00  0.00    +0.082 C 
ATOM      3  O   UNL     1       9.266  28.116  75.626  0.00  0.00    -0.301 OA
ENDROOT
TORSDOF 0
ENDMDL
MODEL 4
REMARK VINA RESULT:      -2.0     10.144     10.163
REMARK  Name = ACE
REMARK  1 active torsions:
REMARK  status: ('A' for Active; 'I' for Inactive)
REMARK    1  A    between atoms: C_1  and  C_3
REMARK                            x       y       z     vdW  Elec       q    Type
REMARK                         _______ _______ _______ _____ _____    ______ ____
ROOT
ATOM      1  C   UNL     1      14.756  31.885  85.154  0.00  0.00    +0.220 C 
ATOM      2  C   UNL     1      15.126  33.025  84.240  0.00  0.00    +0.082 C 
ATOM      3  O   UNL     1      15.377  30.850  85.109  0.00  0.00    -0.301 OA
ENDROOT
TORSDOF 0
ENDMDL
MODEL 5
REMARK VINA RESULT:      -2.0     22.279     22.437
REMARK  Name = ACE
REMARK  1 active torsions:
REMARK  status: ('A' for Active; 'I' for Inactive)
REMARK    1  A    between atoms: C_1  and  C_3
REMARK                            x       y       z     vdW  Elec       q    Type
REMARK                         _______ _______ _______ _____ _____    ______ ____
ROOT
ATOM      1  C   UNL     1      -6.768  33.882  62.434  0.00  0.00    +0.220 C 
ATOM      2  C   UNL     1      -5.523  33.420  61.720  0.00  0.00    +0.082 C 
ATOM      3  O   UNL     1      -7.194  34.996  62.243  0.00  0.00    -0.301 OA
ENDROOT
TORSDOF 0
ENDMDL
MODEL 6
REMARK VINA RESULT:      -1.9      9.954     10.110
REMARK  Name = ACE
REMARK  1 active torsions:
REMARK  status: ('A' for Active; 'I' for Inactive)
REMARK    1  A    between atoms: C_1  and  C_3
REMARK                            x       y       z     vdW  Elec       q    Type
REMARK                         _______ _______ _______ _____ _____    ______ ____
ROOT
ATOM      1  C   UNL     1      15.541  33.544  84.030  0.00  0.00    +0.220 C 
ATOM      2  C   UNL     1      14.508  32.696  84.727  0.00  0.00    +0.082 C 
ATOM      3  O   UNL     1      16.059  33.149  83.013  0.00  0.00    -0.301 OA
ENDROOT
TORSDOF 0
ENDMDL
MODEL 7
REMARK VINA RESULT:      -1.9     12.710     12.761
REMARK  Name = ACE
REMARK  1 active torsions:
REMARK  status: ('A' for Active; 'I' for Inactive)
REMARK    1  A    between atoms: C_1  and  C_3
REMARK                            x       y       z     vdW  Elec       q    Type
REMARK                         _______ _______ _______ _____ _____    ______ ____
ROOT
ATOM      1  C   UNL     1       9.500  41.501  75.884  0.00  0.00    +0.220 C 
ATOM      2  C   UNL     1      10.609  41.654  76.893  0.00  0.00    +0.082 C 
ATOM      3  O   UNL     1       9.729  41.006  74.807  0.00  0.00    -0.301 OA
ENDROOT
TORSDOF 0
ENDMDL
MODEL 8
REMARK VINA RESULT:      -1.8     32.907     33.150
REMARK  Name = ACE
REMARK  1 active torsions:
REMARK  status: ('A' for Active; 'I' for Inactive)
REMARK    1  A    between atoms: C_1  and  C_3
REMARK                            x       y       z     vdW  Elec       q    Type
REMARK                         _______ _______ _______ _____ _____    ______ ____
ROOT
ATOM      1  C   UNL     1     -19.069  18.451  63.175  0.00  0.00    +0.220 C 
ATOM      2  C   UNL     1     -19.868  17.368  63.855  0.00  0.00    +0.082 C 
ATOM      3  O   UNL     1     -17.942  18.227  62.805  0.00  0.00    -0.301 OA
ENDROOT
TORSDOF 0
ENDMDL
MODEL 9
REMARK VINA RESULT:      -1.8     17.592     17.821
REMARK  Name = ACE
REMARK  1 active torsions:
REMARK  status: ('A' for Active; 'I' for Inactive)
REMARK    1  A    between atoms: C_1  and  C_3
REMARK                            x       y       z     vdW  Elec       q    Type
REMARK                         _______ _______ _______ _____ _____    ______ ____
ROOT
ATOM      1  C   UNL     1      16.203  23.484  61.944  0.00  0.00    +0.220 C 
ATOM      2  C   UNL     1      14.764  23.778  62.283  0.00  0.00    +0.082 C 
ATOM      3  O   UNL     1      16.900  24.348  61.470  0.00  0.00    -0.301 OA
ENDROOT
TORSDOF 0
ENDMDL
