MODEL 1
REMARK VINA RESULT:      -3.1      0.000      0.000
REMARK  Name = ACM
REMARK  1 active torsions:
REMARK  status: ('A' for Active; 'I' for Inactive)
REMARK    1  A    between atoms: C_1  and  C_4
REMARK                            x       y       z     vdW  Elec       q    Type
REMARK                         _______ _______ _______ _____ _____    ______ ____
ROOT
ATOM      1  C   UNL     1       8.921  28.544  76.688  0.00  0.00    +0.207 C 
ATOM      2  C   UNL     1       9.906  28.991  77.735  0.00  0.00    +0.109 C 
ATOM      3  N   UNL     1       7.598  28.609  76.935  0.00  0.00    -0.330 N 
ATOM      4  H   UNL     1       7.281  28.943  77.788  0.00  0.00    +0.145 HD
ATOM      5  H   UNL     1       6.964  28.321  76.260  0.00  0.00    +0.145 HD
ATOM      6  O   UNL     1       9.319  28.126  75.621  0.00  0.00    -0.276 OA
ENDROOT
TORSDOF 0
ENDMDL
MODEL 2
REMARK VINA RESULT:      -2.9      1.816      2.034
REMARK  Name = ACM
REMARK  1 active torsions:
REMARK  status: ('A' for Active; 'I' for Inactive)
REMARK    1  A    between atoms: C_1  and  C_4
REMARK                            x       y       z     vdW  Elec       q    Type
REMARK                         _______ _______ _______ _____ _____    ______ ____
ROOT
ATOM      1  C   UNL     1       9.084  28.733  76.952  0.00  0.00    +0.207 C 
ATOM      2  C   UNL     1       7.618  28.805  77.287  0.00  0.00    +0.109 C 
ATOM      3  N   UNL     1       9.479  28.298  75.740  0.00  0.00    -0.330 N 
ATOM      4  H   UNL     1       8.818  28.032  75.082  0.00  0.00    +0.145 HD
ATOM      5  H   UNL     1      10.424  28.252  75.525  0.00  0.00    +0.145 HD
ATOM      6  O   UNL     1       9.910  29.066  77.776  0.00  0.00    -0.276 OA
ENDROOT
TORSDOF 0
ENDMDL
MODEL 3
REMARK VINA RESULT:      -2.8     15.821     16.033
REMARK  Name = ACM
REMARK  1 active torsions:
REMARK  status: ('A' for Active; 'I' for Inactive)
REMARK    1  A    between atoms: C_1  and  C_4
REMARK                            x       y       z     vdW  Elec       q    Type
REMARK                         _______ _______ _______ _____ _____    ______ ____
ROOT
ATOM      1  C   UNL     1      14.103  23.606  62.537  0.00  0.00    +0.207 C 
ATOM      2  C   UNL     1      14.981  22.743  61.671  0.00  0.00    +0.109 C 
ATOM      3  N   UNL     1      13.278  23.040  63.439  0.00  0.00    -0.330 N 
ATOM      4  H   UNL     1      13.251  22.075  63.530  0.00  0.00    +0.145 HD
ATOM      5  H   UNL     1      12.713  23.596  63.996  0.00  0.00    +0.145 HD
ATOM      6  O   UNL     1      14.138  24.813  62.422  0.00  0.00    -0.276 OA
ENDROOT
TORSDOF 0
ENDMDL
MODEL 4
REMARK VINA RESULT:      -2.6     13.676     13.774
REMARK  Name = ACM
REMARK  1 active torsions:
REMARK  status: ('A' for Active; 'I' for Inactive)
REMARK    1  A    between atoms: C_1  and  C_4
REMARK                            x       y       z     vdW  Elec       q    Type
REMARK                         _______ _______ _______ _____ _____    ______ ____
ROOT
ATOM      1  C   UNL     1      10.344  42.172  75.931  0.00  0.00    +0.207 C 
ATOM      2  C   UNL     1      10.464  41.760  77.374  0.00  0.00    +0.109 C 
ATOM      3  N   UNL     1      10.684  43.421  75.556  0.00  0.00    -0.330 N 
ATOM      4  H   UNL     1      11.006  44.054  76.216  0.00  0.00    +0.145 HD
ATOM      5  H   UNL     1      10.607  43.686  74.626  0.00  0.00    +0.145 HD
ATOM      6  O   UNL     1       9.942  41.380  75.106  0.00  0.00    -0.276 OA
ENDROOT
TORSDOF 0
ENDMDL
MODEL 5
REMARK VINA RESULT:      -2.6     10.963     11.033
REMARK  Name = ACM
REMARK  1 active torsions:
REMARK  status: ('A' for Active; 'I' for Inactive)
REMARK    1  A    between atoms: C_1  and  C_4
REMARK                            x       y       z     vdW  Elec       q    Type
REMARK                         _______ _______ _______ _____ _____    ______ ____
ROOT
ATOM      1  C   UNL     1      15.505  33.624  83.872  0.00  0.00    +0.207 C 
ATOM      2  C   UNL     1      14.610  32.761  84.720  0.00  0.00    +0.109 C 
ATOM      3  N   UNL     1      15.525  34.959  84.052  0.00  0.00    -0.330 N 
ATOM      4  H   UNL     1      14.961  35.364  84.730  0.00  0.00    +0.145 HD
ATOM      5  H   UNL     1      16.102  35.514  83.505  0.00  0.00    +0.145 HD
ATOM      6  O   UNL     1      16.210  33.116  83.025  0.00  0.00    -0.276 OA
ENDROOT
TORSDOF 0
ENDMDL
MODEL 6
REMARK VINA RESULT:      -2.5     11.274     11.533
REMARK  Name = ACM
REMARK  1 active torsions:
REMARK  status: ('A' for Active; 'I' for Inactive)
REMARK    1  A    between atoms: C_1  and  C_4
REMARK                            x       y       z     vdW  Elec       q    Type
REMARK                         _______ _______ _______ _____ _____    ______ ____
ROOT
ATOM      1  C   UNL     1      16.159  33.922  83.796  0.00  0.00    +0.207 C 
ATOM      2  C   UNL     1      17.056  33.544  84.945  0.00  0.00    +0.109 C 
ATOM      3  N   UNL     1      15.761  32.984  82.915  0.00  0.00    -0.330 N 
ATOM      4  H   UNL     1      16.053  32.065  83.021  0.00  0.00    +0.145 HD
ATOM      5  H   UNL     1      15.184  33.227  82.175  0.00  0.00    +0.145 HD
ATOM      6  O   UNL     1      15.795  35.071  83.664  0.00  0.00    -0.276 OA
ENDROOT
TORSDOF 0
ENDMDL
MODEL 7
REMARK VINA RESULT:      -2.5     22.075     22.410
REMARK  Name = ACM
REMARK  1 active torsions:
REMARK  status: ('A' for Active; 'I' for Inactive)
REMARK    1  A    between atoms: C_1  and  C_4
REMARK                            x       y       z     vdW  Elec       q    Type
REMARK                         _______ _______ _______ _____ _____    ______ ____
ROOT
ATOM      1  C   UNL     1      -6.377  33.895  61.489  0.00  0.00    +0.207 C 
ATOM      2  C   UNL     1      -7.141  33.331  60.321  0.00  0.00    +0.109 C 
ATOM      3  N   UNL     1      -5.151  33.421  61.785  0.00  0.00    -0.330 N 
ATOM      4  H   UNL     1      -4.760  32.717  61.244  0.00  0.00    +0.145 HD
ATOM      5  H   UNL     1      -4.658  33.785  62.537  0.00  0.00    +0.145 HD
ATOM      6  O   UNL     1      -6.866  34.775  62.165  0.00  0.00    -0.276 OA
ENDROOT
TORSDOF 0
ENDMDL
MODEL 8
REMARK VINA RESULT:      -2.4     21.784     21.960
REMARK  Name = ACM
REMARK  1 active torsions:
REMARK  status: ('A' for Active; 'I' for Inactive)
REMARK    1  A    between atoms: C_1  and  C_4
REMARK                            x       y       z     vdW  Elec       q    Type
REMARK                         _______ _______ _______ _____ _____    ______ ____
ROOT
ATOM      1  C   UNL     1      -7.042  34.102  62.734  0.00  0.00    +0.207 C 
ATOM      2  C   UNL     1      -5.968  33.139  62.304  0.00  0.00    +0.109 C 
ATOM      3  N   UNL     1      -7.627  33.966  63.940  0.00  0.00    -0.330 N 
ATOM      4  H   UNL     1      -7.356  33.246  64.531  0.00  0.00    +0.145 HD
ATOM      5  H   UNL     1      -8.319  34.587  64.217  0.00  0.00    +0.145 HD
ATOM      6  O   UNL     1      -7.380  35.002  61.994  0.00  0.00    -0.276 OA
ENDROOT
TORSDOF 0
ENDMDL
MODEL 9
REMARK VINA RESULT:      -2.4     14.647     14.737
REMARK  Name = ACM
REMARK  1 active torsions:
REMARK  status: ('A' for Active; 'I' for Inactive)
REMARK    1  A    between atoms: C_1  and  C_4
REMARK                            x       y       z     vdW  Elec       q    Type
REMARK                         _______ _______ _______ _____ _____    ______ ____
ROOT
ATOM      1  C   UNL     1       1.292  40.865  74.629  0.00  0.00    +0.207 C 
ATOM      2  C   UNL     1       0.165  41.390  75.478  0.00  0.00    +0.109 C 
ATOM      3  N   UNL     1       1.529  39.540  74.567  0.00  0.00    -0.330 N 
ATOM      4  H   UNL     1       0.974  38.924  75.070  0.00  0.00    +0.145 HD
ATOM      5  H   UNL     1       2.255  39.202  74.020  0.00  0.00    +0.145 HD
ATOM      6  O   UNL     1       1.987  41.635  74.001  0.00  0.00    -0.276 OA
ENDROOT
TORSDOF 0
ENDMDL
