MODEL 1
REMARK VINA RESULT:      -4.8      0.000      0.000
REMARK  Name = BNZ
REMARK  0 active torsions:
REMARK  status: ('A' for Active; 'I' for Inactive)
REMARK                            x       y       z     vdW  Elec       q    Type
REMARK                         _______ _______ _______ _____ _____    ______ ____
ROOT
ATOM      1  C   UNL     1      11.106  28.018  76.544  0.00  0.00    +0.000 A 
ATOM      2  C   UNL     1      10.086  28.262  75.646  0.00  0.00    +0.000 A 
ATOM      3  C   UNL     1       8.916  28.864  76.074  0.00  0.00    +0.000 A 
ATOM      4  C   UNL     1       8.768  29.217  77.402  0.00  0.00    +0.000 A 
ATOM      5  C   UNL     1       9.788  28.971  78.301  0.00  0.00    +0.000 A 
ATOM      6  C   UNL     1      10.958  28.372  77.872  0.00  0.00    +0.000 A 
ENDROOT
TORSDOF 0
ENDMDL
MODEL 2
REMARK VINA RESULT:      -4.8      0.052      2.765
REMARK  Name = BNZ
REMARK  0 active torsions:
REMARK  status: ('A' for Active; 'I' for Inactive)
REMARK                            x       y       z     vdW  Elec       q    Type
REMARK                         _______ _______ _______ _____ _____    ______ ____
ROOT
ATOM      1  C   UNL     1       8.748  29.202  77.349  0.00  0.00    +0.000 A 
ATOM      2  C   UNL     1       9.752  28.944  78.262  0.00  0.00    +0.000 A 
ATOM      3  C   UNL     1      10.935  28.361  77.844  0.00  0.00    +0.000 A 
ATOM      4  C   UNL     1      11.109  28.033  76.513  0.00  0.00    +0.000 A 
ATOM      5  C   UNL     1      10.105  28.289  75.600  0.00  0.00    +0.000 A 
ATOM      6  C   UNL     1       8.923  28.874  76.017  0.00  0.00    +0.000 A 
ENDROOT
TORSDOF 0
ENDMDL
MODEL 3
REMARK VINA RESULT:      -3.3     22.255     23.620
REMARK  Name = BNZ
REMARK  0 active torsions:
REMARK  status: ('A' for Active; 'I' for Inactive)
REMARK                            x       y       z     vdW  Elec       q    Type
REMARK                         _______ _______ _______ _____ _____    ______ ____
ROOT
ATOM      1  C   UNL     1      -5.588  33.471  61.848  0.00  0.00    +0.000 A 
ATOM      2  C   UNL     1      -5.374  32.912  60.602  0.00  0.00    +0.000 A 
ATOM      3  C   UNL     1      -6.367  32.962  59.642  0.00  0.00    +0.000 A 
ATOM      4  C   UNL     1      -7.576  33.567  59.929  0.00  0.00    +0.000 A 
ATOM      5  C   UNL     1      -7.791  34.124  61.175  0.00  0.00    +0.000 A 
ATOM      6  C   UNL     1      -6.797  34.077  62.135  0.00  0.00    +0.000 A 
ENDROOT
TORSDOF 0
ENDMDL
MODEL 4
REMARK VINA RESULT:      -3.3     22.256     23.650
REMARK  Name = BNZ
REMARK  0 active torsions:
REMARK  status: ('A' for Active; 'I' for Inactive)
REMARK                            x       y       z     vdW  Elec       q    Type
REMARK                         _______ _______ _______ _____ _____    ______ ____
ROOT
ATOM      1  C   UNL     1      -5.579  33.485  61.841  0.00  0.00    +0.000 A 
ATOM      2  C   UNL     1      -6.794  34.079  62.124  0.00  0.00    +0.000 A 
ATOM      3  C   UNL     1      -7.790  34.108  61.164  0.00  0.00    +0.000 A 
ATOM      4  C   UNL     1      -7.567  33.546  59.921  0.00  0.00    +0.000 A 
ATOM      5  C   UNL     1      -6.351  32.954  59.638  0.00  0.00    +0.000 A 
ATOM      6  C   UNL     1      -5.356  32.923  60.598  0.00  0.00    +0.000 A 
ENDROOT
TORSDOF 0
ENDMDL
MODEL 5
REMARK VINA RESULT:      -3.3     22.316     23.693
REMARK  Name = BNZ
REMARK  0 active torsions:
REMARK  status: ('A' for Active; 'I' for Inactive)
REMARK                            x       y       z     vdW  Elec       q    Type
REMARK                         _______ _______ _______ _____ _____    ______ ____
ROOT
ATOM      1  C   UNL     1      -7.443  33.460  59.732  0.00  0.00    +0.000 A 
ATOM      2  C   UNL     1      -6.187  32.900  59.596  0.00  0.00    +0.000 A 
ATOM      3  C   UNL     1      -5.304  32.917  60.660  0.00  0.00    +0.000 A 
ATOM      4  C   UNL     1      -5.676  33.497  61.858  0.00  0.00    +0.000 A 
ATOM      5  C   UNL     1      -6.932  34.058  61.993  0.00  0.00    +0.000 A 
ATOM      6  C   UNL     1      -7.816  34.039  60.930  0.00  0.00    +0.000 A 
ENDROOT
TORSDOF 0
ENDMDL
MODEL 6
REMARK VINA RESULT:      -3.3     22.311     23.711
REMARK  Name = BNZ
REMARK  0 active torsions:
REMARK  status: ('A' for Active; 'I' for Inactive)
REMARK                            x       y       z     vdW  Elec       q    Type
REMARK                         _______ _______ _______ _____ _____    ______ ____
ROOT
ATOM      1  C   UNL     1      -7.432  33.456  59.728  0.00  0.00    +0.000 A 
ATOM      2  C   UNL     1      -7.810  34.030  60.926  0.00  0.00    +0.000 A 
ATOM      3  C   UNL     1      -6.928  34.053  61.991  0.00  0.00    +0.000 A 
ATOM      4  C   UNL     1      -5.669  33.498  61.857  0.00  0.00    +0.000 A 
ATOM      5  C   UNL     1      -5.291  32.923  60.659  0.00  0.00    +0.000 A 
ATOM      6  C   UNL     1      -6.173  32.902  59.593  0.00  0.00    +0.000 A 
ENDROOT
TORSDOF 0
ENDMDL
MODEL 7
REMARK VINA RESULT:      -3.3     29.532     30.752
REMARK  Name = BNZ
REMARK  0 active torsions:
REMARK  status: ('A' for Active; 'I' for Inactive)
REMARK                            x       y       z     vdW  Elec       q    Type
REMARK                         _______ _______ _______ _____ _____    ______ ____
ROOT
ATOM      1  C   UNL     1      -9.721  16.873  54.752  0.00  0.00    +0.000 A 
ATOM      2  C   UNL     1      -9.618  16.882  56.129  0.00  0.00    +0.000 A 
ATOM      3  C   UNL     1      -8.909  17.887  56.763  0.00  0.00    +0.000 A 
ATOM      4  C   UNL     1      -8.302  18.880  56.017  0.00  0.00    +0.000 A 
ATOM      5  C   UNL     1      -8.405  18.870  54.639  0.00  0.00    +0.000 A 
ATOM      6  C   UNL     1      -9.115  17.866  54.006  0.00  0.00    +0.000 A 
ENDROOT
TORSDOF 0
ENDMDL
MODEL 8
REMARK VINA RESULT:      -3.2     22.393     23.663
REMARK  Name = BNZ
REMARK  0 active torsions:
REMARK  status: ('A' for Active; 'I' for Inactive)
REMARK                            x       y       z     vdW  Elec       q    Type
REMARK                         _______ _______ _______ _____ _____    ______ ____
ROOT
ATOM      1  C   UNL     1      -5.643  33.027  61.112  0.00  0.00    +0.000 A 
ATOM      2  C   UNL     1      -6.435  32.983  59.980  0.00  0.00    +0.000 A 
ATOM      3  C   UNL     1      -7.669  33.607  59.976  0.00  0.00    +0.000 A 
ATOM      4  C   UNL     1      -8.111  34.271  61.104  0.00  0.00    +0.000 A 
ATOM      5  C   UNL     1      -7.320  34.314  62.236  0.00  0.00    +0.000 A 
ATOM      6  C   UNL     1      -6.085  33.692  62.240  0.00  0.00    +0.000 A 
ENDROOT
TORSDOF 0
ENDMDL
MODEL 9
REMARK VINA RESULT:      -3.1     11.250     11.925
REMARK  Name = BNZ
REMARK  0 active torsions:
REMARK  status: ('A' for Active; 'I' for Inactive)
REMARK                            x       y       z     vdW  Elec       q    Type
REMARK                         _______ _______ _______ _____ _____    ______ ____
ROOT
ATOM      1  C   UNL     1      10.851  17.408  79.614  0.00  0.00    +0.000 A 
ATOM      2  C   UNL     1      11.456  16.373  80.302  0.00  0.00    +0.000 A 
ATOM      3  C   UNL     1      11.943  16.583  81.579  0.00  0.00    +0.000 A 
ATOM      4  C   UNL     1      11.827  17.829  82.166  0.00  0.00    +0.000 A 
ATOM      5  C   UNL     1      11.223  18.864  81.478  0.00  0.00    +0.000 A 
ATOM      6  C   UNL     1      10.735  18.653  80.201  0.00  0.00    +0.000 A 
ENDROOT
TORSDOF 0
ENDMDL
