MODEL 1
REMARK VINA RESULT:      -2.4      0.000      0.000
REMARK  Name = CCN
REMARK  1 active torsions:
REMARK  status: ('A' for Active; 'I' for Inactive)
REMARK    1  A    between atoms: C_2  and  C_3
REMARK                            x       y       z     vdW  Elec       q    Type
REMARK                         _______ _______ _______ _____ _____    ______ ____
ROOT
ATOM      1  N   UNL     1       9.687  28.370  75.731  0.00  0.00    -0.197 NA
ATOM      2  C   UNL     1       8.801  28.555  76.418  0.00  0.00    +0.059 C 
ATOM      3  C   UNL     1       7.653  28.795  77.308  0.00  0.00    +0.138 C 
ENDROOT
TORSDOF 0
ENDMDL
MODEL 2
REMARK VINA RESULT:      -2.4      1.678      2.144
REMARK  Name = CCN
REMARK  1 active torsions:
REMARK  status: ('A' for Active; 'I' for Inactive)
REMARK    1  A    between atoms: C_2  and  C_3
REMARK                            x       y       z     vdW  Elec       q    Type
REMARK                         _______ _______ _______ _____ _____    ______ ____
ROOT
ATOM      1  N   UNL     1       7.598  28.843  77.304  0.00  0.00    -0.197 NA
ATOM      2  C   UNL     1       8.515  28.746  76.640  0.00  0.00    +0.059 C 
ATOM      3  C   UNL     1       9.704  28.620  75.781  0.00  0.00    +0.138 C 
ENDROOT
TORSDOF 0
ENDMDL
MODEL 3
REMARK VINA RESULT:      -2.0     16.824     17.172
REMARK  Name = CCN
REMARK  1 active torsions:
REMARK  status: ('A' for Active; 'I' for Inactive)
REMARK    1  A    between atoms: C_2  and  C_3
REMARK                            x       y       z     vdW  Elec       q    Type
REMARK                         _______ _______ _______ _____ _____    ______ ____
ROOT
ATOM      1  N   UNL     1      16.849  25.715  60.553  0.00  0.00    -0.197 NA
ATOM      2  C   UNL     1      15.893  26.149  60.987  0.00  0.00    +0.059 C 
ATOM      3  C   UNL     1      14.654  26.711  61.549  0.00  0.00    +0.138 C 
ENDROOT
TORSDOF 0
ENDMDL
MODEL 4
REMARK VINA RESULT:      -2.0     11.639     11.657
REMARK  Name = CCN
REMARK  1 active torsions:
REMARK  status: ('A' for Active; 'I' for Inactive)
REMARK    1  A    between atoms: C_2  and  C_3
REMARK                            x       y       z     vdW  Elec       q    Type
REMARK                         _______ _______ _______ _____ _____    ______ ____
ROOT
ATOM      1  N   UNL     1      15.825  33.012  83.137  0.00  0.00    -0.197 NA
ATOM      2  C   UNL     1      15.883  34.017  83.664  0.00  0.00    +0.059 C 
ATOM      3  C   UNL     1      15.959  35.319  84.347  0.00  0.00    +0.138 C 
ENDROOT
TORSDOF 0
ENDMDL
MODEL 5
REMARK VINA RESULT:      -2.0     11.124     11.124
REMARK  Name = CCN
REMARK  1 active torsions:
REMARK  status: ('A' for Active; 'I' for Inactive)
REMARK    1  A    between atoms: C_2  and  C_3
REMARK                            x       y       z     vdW  Elec       q    Type
REMARK                         _______ _______ _______ _____ _____    ______ ____
ROOT
ATOM      1  N   UNL     1      15.401  31.003  85.162  0.00  0.00    -0.197 NA
ATOM      2  C   UNL     1      14.575  31.754  85.368  0.00  0.00    +0.059 C 
ATOM      3  C   UNL     1      13.504  32.729  85.636  0.00  0.00    +0.138 C 
ENDROOT
TORSDOF 0
ENDMDL
MODEL 6
REMARK VINA RESULT:      -1.9     15.807     16.081
REMARK  Name = CCN
REMARK  1 active torsions:
REMARK  status: ('A' for Active; 'I' for Inactive)
REMARK    1  A    between atoms: C_2  and  C_3
REMARK                            x       y       z     vdW  Elec       q    Type
REMARK                         _______ _______ _______ _____ _____    ______ ____
ROOT
ATOM      1  N   UNL     1      13.708  24.063  62.617  0.00  0.00    -0.197 NA
ATOM      2  C   UNL     1      13.894  22.947  62.511  0.00  0.00    +0.059 C 
ATOM      3  C   UNL     1      14.135  21.502  62.373  0.00  0.00    +0.138 C 
ENDROOT
TORSDOF 0
ENDMDL
MODEL 7
REMARK VINA RESULT:      -1.9     12.914     12.932
REMARK  Name = CCN
REMARK  1 active torsions:
REMARK  status: ('A' for Active; 'I' for Inactive)
REMARK    1  A    between atoms: C_2  and  C_3
REMARK                            x       y       z     vdW  Elec       q    Type
REMARK                         _______ _______ _______ _____ _____    ______ ____
ROOT
ATOM      1  N   UNL     1       9.501  41.003  75.311  0.00  0.00    -0.197 NA
ATOM      2  C   UNL     1       9.845  41.361  76.333  0.00  0.00    +0.059 C 
ATOM      3  C   UNL     1      10.289  41.825  77.658  0.00  0.00    +0.138 C 
ENDROOT
TORSDOF 0
ENDMDL
MODEL 8
REMARK VINA RESULT:      -1.9     24.313     24.391
REMARK  Name = CCN
REMARK  1 active torsions:
REMARK  status: ('A' for Active; 'I' for Inactive)
REMARK    1  A    between atoms: C_2  and  C_3
REMARK                            x       y       z     vdW  Elec       q    Type
REMARK                         _______ _______ _______ _____ _____    ______ ____
ROOT
ATOM      1  N   UNL     1      15.896  43.613  58.925  0.00  0.00    -0.197 NA
ATOM      2  C   UNL     1      16.552  44.243  59.606  0.00  0.00    +0.059 C 
ATOM      3  C   UNL     1      17.402  45.060  60.487  0.00  0.00    +0.138 C 
ENDROOT
TORSDOF 0
ENDMDL
MODEL 9
REMARK VINA RESULT:      -1.8     22.817     22.895
REMARK  Name = CCN
REMARK  1 active torsions:
REMARK  status: ('A' for Active; 'I' for Inactive)
REMARK    1  A    between atoms: C_2  and  C_3
REMARK                            x       y       z     vdW  Elec       q    Type
REMARK                         _______ _______ _______ _____ _____    ______ ____
ROOT
ATOM      1  N   UNL     1      -7.111  34.779  62.255  0.00  0.00    -0.197 NA
ATOM      2  C   UNL     1      -7.323  34.158  61.327  0.00  0.00    +0.059 C 
ATOM      3  C   UNL     1      -7.597  33.353  60.126  0.00  0.00    +0.138 C 
ENDROOT
TORSDOF 0
ENDMDL
