MODEL 1
REMARK VINA RESULT:      -4.6      0.000      0.000
REMARK  Name = CHX
REMARK  0 active torsions:
REMARK  status: ('A' for Active; 'I' for Inactive)
REMARK                            x       y       z     vdW  Elec       q    Type
REMARK                         _______ _______ _______ _____ _____    ______ ____
ROOT
ATOM      1  C   UNL     1       9.879  29.189  78.293  0.00  0.00    -0.000 C 
ATOM      2  C   UNL     1      10.831  28.189  77.635  0.00  0.00    -0.000 C 
ATOM      3  C   UNL     1      10.801  28.380  76.118  0.00  0.00    -0.000 C 
ATOM      4  C   UNL     1       9.380  28.145  75.603  0.00  0.00    -0.000 C 
ATOM      5  C   UNL     1       8.428  29.144  76.260  0.00  0.00    -0.000 C 
ATOM      6  C   UNL     1       8.458  28.954  77.777  0.00  0.00    -0.000 C 
ENDROOT
TORSDOF 0
ENDMDL
MODEL 2
REMARK VINA RESULT:      -3.2     21.931     23.285
REMARK  Name = CHX
REMARK  0 active torsions:
REMARK  status: ('A' for Active; 'I' for Inactive)
REMARK                            x       y       z     vdW  Elec       q    Type
REMARK                         _______ _______ _______ _____ _____    ______ ____
ROOT
ATOM      1  C   UNL     1      -5.463  33.513  61.863  0.00  0.00    -0.000 C 
ATOM      2  C   UNL     1      -5.487  32.467  60.748  0.00  0.00    -0.000 C 
ATOM      3  C   UNL     1      -6.358  32.970  59.596  0.00  0.00    -0.000 C 
ATOM      4  C   UNL     1      -7.781  33.211  60.100  0.00  0.00    -0.000 C 
ATOM      5  C   UNL     1      -7.757  34.257  61.215  0.00  0.00    -0.000 C 
ATOM      6  C   UNL     1      -6.887  33.754  62.367  0.00  0.00    -0.000 C 
ENDROOT
TORSDOF 0
ENDMDL
MODEL 3
REMARK VINA RESULT:      -3.2     21.952     23.442
REMARK  Name = CHX
REMARK  0 active torsions:
REMARK  status: ('A' for Active; 'I' for Inactive)
REMARK                            x       y       z     vdW  Elec       q    Type
REMARK                         _______ _______ _______ _____ _____    ______ ____
ROOT
ATOM      1  C   UNL     1      -6.406  32.974  59.588  0.00  0.00    -0.000 C 
ATOM      2  C   UNL     1      -7.812  33.212  60.140  0.00  0.00    -0.000 C 
ATOM      3  C   UNL     1      -7.754  34.273  61.240  0.00  0.00    -0.000 C 
ATOM      4  C   UNL     1      -6.839  33.790  62.366  0.00  0.00    -0.000 C 
ATOM      5  C   UNL     1      -5.433  33.551  61.814  0.00  0.00    -0.000 C 
ATOM      6  C   UNL     1      -5.491  32.490  60.714  0.00  0.00    -0.000 C 
ENDROOT
TORSDOF 0
ENDMDL
MODEL 4
REMARK VINA RESULT:      -3.2     21.956     23.369
REMARK  Name = CHX
REMARK  0 active torsions:
REMARK  status: ('A' for Active; 'I' for Inactive)
REMARK                            x       y       z     vdW  Elec       q    Type
REMARK                         _______ _______ _______ _____ _____    ______ ____
ROOT
ATOM      1  C   UNL     1      -7.800  33.203  60.115  0.00  0.00    -0.000 C 
ATOM      2  C   UNL     1      -6.389  32.961  59.577  0.00  0.00    -0.000 C 
ATOM      3  C   UNL     1      -5.487  32.479  60.714  0.00  0.00    -0.000 C 
ATOM      4  C   UNL     1      -5.439  33.543  61.812  0.00  0.00    -0.000 C 
ATOM      5  C   UNL     1      -6.850  33.785  62.350  0.00  0.00    -0.000 C 
ATOM      6  C   UNL     1      -7.752  34.267  61.213  0.00  0.00    -0.000 C 
ENDROOT
TORSDOF 0
ENDMDL
MODEL 5
REMARK VINA RESULT:      -3.2     22.194     23.544
REMARK  Name = CHX
REMARK  0 active torsions:
REMARK  status: ('A' for Active; 'I' for Inactive)
REMARK                            x       y       z     vdW  Elec       q    Type
REMARK                         _______ _______ _______ _____ _____    ______ ____
ROOT
ATOM      1  C   UNL     1      -6.064  32.645  59.890  0.00  0.00    -0.000 C 
ATOM      2  C   UNL     1      -5.299  33.426  60.960  0.00  0.00    -0.000 C 
ATOM      3  C   UNL     1      -6.165  33.555  62.214  0.00  0.00    -0.000 C 
ATOM      4  C   UNL     1      -7.456  34.298  61.867  0.00  0.00    -0.000 C 
ATOM      5  C   UNL     1      -8.221  33.517  60.797  0.00  0.00    -0.000 C 
ATOM      6  C   UNL     1      -7.355  33.388  59.543  0.00  0.00    -0.000 C 
ENDROOT
TORSDOF 0
ENDMDL
MODEL 6
REMARK VINA RESULT:      -3.2     22.157     23.539
REMARK  Name = CHX
REMARK  0 active torsions:
REMARK  status: ('A' for Active; 'I' for Inactive)
REMARK                            x       y       z     vdW  Elec       q    Type
REMARK                         _______ _______ _______ _____ _____    ______ ____
ROOT
ATOM      1  C   UNL     1      -6.069  33.500  62.149  0.00  0.00    -0.000 C 
ATOM      2  C   UNL     1      -7.372  34.252  61.874  0.00  0.00    -0.000 C 
ATOM      3  C   UNL     1      -8.183  33.496  60.821  0.00  0.00    -0.000 C 
ATOM      4  C   UNL     1      -7.371  33.394  59.529  0.00  0.00    -0.000 C 
ATOM      5  C   UNL     1      -6.068  32.642  59.804  0.00  0.00    -0.000 C 
ATOM      6  C   UNL     1      -5.257  33.398  60.857  0.00  0.00    -0.000 C 
ENDROOT
TORSDOF 0
ENDMDL
MODEL 7
REMARK VINA RESULT:      -3.1     19.894     21.149
REMARK  Name = CHX
REMARK  0 active torsions:
REMARK  status: ('A' for Active; 'I' for Inactive)
REMARK                            x       y       z     vdW  Elec       q    Type
REMARK                         _______ _______ _______ _____ _____    ______ ____
ROOT
ATOM      1  C   UNL     1       0.575  26.703  59.404  0.00  0.00    -0.000 C 
ATOM      2  C   UNL     1       0.375  25.939  58.095  0.00  0.00    -0.000 C 
ATOM      3  C   UNL     1       0.360  26.925  56.926  0.00  0.00    -0.000 C 
ATOM      4  C   UNL     1      -0.786  27.921  57.115  0.00  0.00    -0.000 C 
ATOM      5  C   UNL     1      -0.586  28.686  58.424  0.00  0.00    -0.000 C 
ATOM      6  C   UNL     1      -0.571  27.699  59.593  0.00  0.00    -0.000 C 
ENDROOT
TORSDOF 0
ENDMDL
MODEL 8
REMARK VINA RESULT:      -3.1     19.794     21.140
REMARK  Name = CHX
REMARK  0 active torsions:
REMARK  status: ('A' for Active; 'I' for Inactive)
REMARK                            x       y       z     vdW  Elec       q    Type
REMARK                         _______ _______ _______ _____ _____    ______ ____
ROOT
ATOM      1  C   UNL     1      -0.636  27.751  59.617  0.00  0.00    -0.000 C 
ATOM      2  C   UNL     1      -0.595  28.679  58.403  0.00  0.00    -0.000 C 
ATOM      3  C   UNL     1      -0.722  27.850  57.124  0.00  0.00    -0.000 C 
ATOM      4  C   UNL     1       0.437  26.855  57.045  0.00  0.00    -0.000 C 
ATOM      5  C   UNL     1       0.396  25.927  58.260  0.00  0.00    -0.000 C 
ATOM      6  C   UNL     1       0.523  26.756  59.538  0.00  0.00    -0.000 C 
ENDROOT
TORSDOF 0
ENDMDL
MODEL 9
REMARK VINA RESULT:      -3.1     19.782     21.152
REMARK  Name = CHX
REMARK  0 active torsions:
REMARK  status: ('A' for Active; 'I' for Inactive)
REMARK                            x       y       z     vdW  Elec       q    Type
REMARK                         _______ _______ _______ _____ _____    ______ ____
ROOT
ATOM      1  C   UNL     1      -0.719  27.830  57.126  0.00  0.00    -0.000 C 
ATOM      2  C   UNL     1       0.439  26.834  57.060  0.00  0.00    -0.000 C 
ATOM      3  C   UNL     1       0.394  25.918  58.283  0.00  0.00    -0.000 C 
ATOM      4  C   UNL     1       0.517  26.760  59.555  0.00  0.00    -0.000 C 
ATOM      5  C   UNL     1      -0.641  27.755  59.621  0.00  0.00    -0.000 C 
ATOM      6  C   UNL     1      -0.596  28.671  58.397  0.00  0.00    -0.000 C 
ENDROOT
TORSDOF 0
ENDMDL
