MODEL 1
REMARK VINA RESULT:      -2.9      0.000      0.000
REMARK  Name = DMF
REMARK  2 active torsions:
REMARK  status: ('A' for Active; 'I' for Inactive)
REMARK    1  A    between atoms: C_1  and  N_5
REMARK    2  A    between atoms: C_2  and  N_5
REMARK                            x       y       z     vdW  Elec       q    Type
REMARK                         _______ _______ _______ _____ _____    ______ ____
ROOT
ATOM      1  C   UNL     1       7.547  28.806  77.366  0.00  0.00    +0.131 C 
ATOM      2  N   UNL     1       8.974  28.761  77.037  0.00  0.00    -0.310 N 
ATOM      3  C   UNL     1       9.368  28.391  75.803  0.00  0.00    +0.327 C 
ATOM      4  O   UNL     1      10.550  28.354  75.530  0.00  0.00    -0.279 OA
ATOM      5  C   UNL     1       9.970  29.116  78.049  0.00  0.00    +0.131 C 
ENDROOT
TORSDOF 0
ENDMDL
MODEL 2
REMARK VINA RESULT:      -2.8      1.716      2.607
REMARK  Name = DMF
REMARK  2 active torsions:
REMARK  status: ('A' for Active; 'I' for Inactive)
REMARK    1  A    between atoms: C_1  and  N_5
REMARK    2  A    between atoms: C_2  and  N_5
REMARK                            x       y       z     vdW  Elec       q    Type
REMARK                         _______ _______ _______ _____ _____    ______ ____
ROOT
ATOM      1  C   UNL     1      10.646  28.372  77.819  0.00  0.00    +0.131 C 
ATOM      2  N   UNL     1       9.493  28.649  76.959  0.00  0.00    -0.310 N 
ATOM      3  C   UNL     1       8.291  28.910  77.509  0.00  0.00    +0.327 C 
ATOM      4  O   UNL     1       7.336  29.140  76.798  0.00  0.00    -0.279 OA
ATOM      5  C   UNL     1       9.646  28.643  75.503  0.00  0.00    +0.131 C 
ENDROOT
TORSDOF 0
ENDMDL
MODEL 3
REMARK VINA RESULT:      -2.5     11.176     11.961
REMARK  Name = DMF
REMARK  2 active torsions:
REMARK  status: ('A' for Active; 'I' for Inactive)
REMARK    1  A    between atoms: C_1  and  N_5
REMARK    2  A    between atoms: C_2  and  N_5
REMARK                            x       y       z     vdW  Elec       q    Type
REMARK                         _______ _______ _______ _____ _____    ______ ____
ROOT
ATOM      1  C   UNL     1      16.595  35.647  85.434  0.00  0.00    +0.131 C 
ATOM      2  N   UNL     1      16.645  34.352  84.751  0.00  0.00    -0.310 N 
ATOM      3  C   UNL     1      15.888  34.140  83.657  0.00  0.00    +0.327 C 
ATOM      4  O   UNL     1      15.929  33.068  83.091  0.00  0.00    -0.279 OA
ATOM      5  C   UNL     1      17.517  33.291  85.257  0.00  0.00    +0.131 C 
ENDROOT
TORSDOF 0
ENDMDL
MODEL 4
REMARK VINA RESULT:      -2.4     16.131     16.717
REMARK  Name = DMF
REMARK  2 active torsions:
REMARK  status: ('A' for Active; 'I' for Inactive)
REMARK    1  A    between atoms: C_1  and  N_5
REMARK    2  A    between atoms: C_2  and  N_5
REMARK                            x       y       z     vdW  Elec       q    Type
REMARK                         _______ _______ _______ _____ _____    ______ ____
ROOT
ATOM      1  C   UNL     1      16.685  22.955  62.035  0.00  0.00    +0.131 C 
ATOM      2  N   UNL     1      15.229  22.920  62.191  0.00  0.00    -0.310 N 
ATOM      3  C   UNL     1      14.548  24.063  62.402  0.00  0.00    +0.327 C 
ATOM      4  O   UNL     1      13.341  24.035  62.530  0.00  0.00    -0.279 OA
ATOM      5  C   UNL     1      14.515  21.644  62.117  0.00  0.00    +0.131 C 
ENDROOT
TORSDOF 0
ENDMDL
MODEL 5
REMARK VINA RESULT:      -2.4     21.730     21.987
REMARK  Name = DMF
REMARK  2 active torsions:
REMARK  status: ('A' for Active; 'I' for Inactive)
REMARK    1  A    between atoms: C_1  and  N_5
REMARK    2  A    between atoms: C_2  and  N_5
REMARK                            x       y       z     vdW  Elec       q    Type
REMARK                         _______ _______ _______ _____ _____    ______ ____
ROOT
ATOM      1  C   UNL     1      -7.171  31.738  63.616  0.00  0.00    +0.131 C 
ATOM      2  N   UNL     1      -6.788  32.915  62.832  0.00  0.00    -0.310 N 
ATOM      3  C   UNL     1      -7.539  34.032  62.885  0.00  0.00    +0.327 C 
ATOM      4  O   UNL     1      -7.223  35.007  62.237  0.00  0.00    -0.279 OA
ATOM      5  C   UNL     1      -5.590  32.877  61.992  0.00  0.00    +0.131 C 
ENDROOT
TORSDOF 0
ENDMDL
MODEL 6
REMARK VINA RESULT:      -2.3     23.060     23.582
REMARK  Name = DMF
REMARK  2 active torsions:
REMARK  status: ('A' for Active; 'I' for Inactive)
REMARK    1  A    between atoms: C_1  and  N_5
REMARK    2  A    between atoms: C_2  and  N_5
REMARK                            x       y       z     vdW  Elec       q    Type
REMARK                         _______ _______ _______ _____ _____    ______ ____
ROOT
ATOM      1  C   UNL     1      -8.248  31.863  60.956  0.00  0.00    +0.131 C 
ATOM      2  N   UNL     1      -8.230  33.229  61.484  0.00  0.00    -0.310 N 
ATOM      3  C   UNL     1      -7.058  33.805  61.817  0.00  0.00    +0.327 C 
ATOM      4  O   UNL     1      -7.042  34.937  62.254  0.00  0.00    -0.279 OA
ATOM      5  C   UNL     1      -9.483  33.967  61.651  0.00  0.00    +0.131 C 
ENDROOT
TORSDOF 0
ENDMDL
MODEL 7
REMARK VINA RESULT:      -2.3     10.906     11.501
REMARK  Name = DMF
REMARK  2 active torsions:
REMARK  status: ('A' for Active; 'I' for Inactive)
REMARK    1  A    between atoms: C_1  and  N_5
REMARK    2  A    between atoms: C_2  and  N_5
REMARK                            x       y       z     vdW  Elec       q    Type
REMARK                         _______ _______ _______ _____ _____    ______ ____
ROOT
ATOM      1  C   UNL     1      14.614  34.071  86.182  0.00  0.00    +0.131 C 
ATOM      2  N   UNL     1      15.383  32.906  85.737  0.00  0.00    -0.310 N 
ATOM      3  C   UNL     1      14.744  31.770  85.396  0.00  0.00    +0.327 C 
ATOM      4  O   UNL     1      15.381  30.804  85.028  0.00  0.00    -0.279 OA
ATOM      5  C   UNL     1      16.843  32.977  85.663  0.00  0.00    +0.131 C 
ENDROOT
TORSDOF 0
ENDMDL
MODEL 8
REMARK VINA RESULT:      -2.3     22.753     23.248
REMARK  Name = DMF
REMARK  2 active torsions:
REMARK  status: ('A' for Active; 'I' for Inactive)
REMARK    1  A    between atoms: C_1  and  N_5
REMARK    2  A    between atoms: C_2  and  N_5
REMARK                            x       y       z     vdW  Elec       q    Type
REMARK                         _______ _______ _______ _____ _____    ______ ____
ROOT
ATOM      1  C   UNL     1      17.590  43.578  61.686  0.00  0.00    +0.131 C 
ATOM      2  N   UNL     1      16.712  43.136  60.600  0.00  0.00    -0.310 N 
ATOM      3  C   UNL     1      16.412  43.978  59.593  0.00  0.00    +0.327 C 
ATOM      4  O   UNL     1      15.685  43.613  58.693  0.00  0.00    -0.279 OA
ATOM      5  C   UNL     1      16.161  41.779  60.610  0.00  0.00    +0.131 C 
ENDROOT
TORSDOF 0
ENDMDL
MODEL 9
REMARK VINA RESULT:      -2.2     13.300     13.505
REMARK  Name = DMF
REMARK  2 active torsions:
REMARK  status: ('A' for Active; 'I' for Inactive)
REMARK    1  A    between atoms: C_1  and  N_5
REMARK    2  A    between atoms: C_2  and  N_5
REMARK                            x       y       z     vdW  Elec       q    Type
REMARK                         _______ _______ _______ _____ _____    ______ ____
ROOT
ATOM      1  C   UNL     1       8.886  41.730  78.271  0.00  0.00    +0.131 C 
ATOM      2  N   UNL     1       9.377  42.111  76.944  0.00  0.00    -0.310 N 
ATOM      3  C   UNL     1      10.605  41.728  76.545  0.00  0.00    +0.327 C 
ATOM      4  O   UNL     1      11.012  42.044  75.446  0.00  0.00    -0.279 OA
ATOM      5  C   UNL     1       8.532  42.909  76.052  0.00  0.00    +0.131 C 
ENDROOT
TORSDOF 0
ENDMDL
