MODEL 1
REMARK VINA RESULT:      -4.8      0.000      0.000
REMARK  Name = HBX
REMARK  1 active torsions:
REMARK  status: ('A' for Active; 'I' for Inactive)
REMARK    1  A    between atoms: C_1  and  C_3
REMARK                            x       y       z     vdW  Elec       q    Type
REMARK                         _______ _______ _______ _____ _____    ______ ____
ROOT
ATOM      1  C   UNL     1       8.843  28.799  76.969  0.00  0.00    +0.014 A 
ATOM      2  C   UNL     1       9.618  28.864  78.131  0.00  0.00    +0.011 A 
ATOM      3  C   UNL     1      10.954  28.522  78.085  0.00  0.00    +0.001 A 
ATOM      4  C   UNL     1      11.528  28.125  76.889  0.00  0.00    +0.000 A 
ATOM      5  C   UNL     1      10.769  28.064  75.734  0.00  0.00    +0.001 A 
ATOM      6  C   UNL     1       9.432  28.397  75.765  0.00  0.00    +0.011 A 
ENDROOT
BRANCH   1   7
ATOM      7  C   UNL     1       7.416  29.156  77.011  0.00  0.00    +0.258 C 
ATOM      8  O   UNL     1       6.633  28.453  77.614  0.00  0.00    -0.296 OA
ENDBRANCH   1   7
TORSDOF 1
ENDMDL
MODEL 2
REMARK VINA RESULT:      -4.2     10.244     10.765
REMARK  Name = HBX
REMARK  1 active torsions:
REMARK  status: ('A' for Active; 'I' for Inactive)
REMARK    1  A    between atoms: C_1  and  C_3
REMARK                            x       y       z     vdW  Elec       q    Type
REMARK                         _______ _______ _______ _____ _____    ______ ____
ROOT
ATOM      1  C   UNL     1      13.307  31.390  86.314  0.00  0.00    +0.014 A 
ATOM      2  C   UNL     1      12.773  30.287  86.987  0.00  0.00    +0.011 A 
ATOM      3  C   UNL     1      11.409  30.190  87.171  0.00  0.00    +0.001 A 
ATOM      4  C   UNL     1      10.570  31.177  86.683  0.00  0.00    +0.000 A 
ATOM      5  C   UNL     1      11.091  32.269  86.011  0.00  0.00    +0.001 A 
ATOM      6  C   UNL     1      12.452  32.382  85.824  0.00  0.00    +0.011 A 
ENDROOT
BRANCH   1   7
ATOM      7  C   UNL     1      14.761  31.504  86.119  0.00  0.00    +0.258 C 
ATOM      8  O   UNL     1      15.301  30.889  85.224  0.00  0.00    -0.296 OA
ENDBRANCH   1   7
TORSDOF 1
ENDMDL
MODEL 3
REMARK VINA RESULT:      -4.0     22.417     23.780
REMARK  Name = HBX
REMARK  1 active torsions:
REMARK  status: ('A' for Active; 'I' for Inactive)
REMARK    1  A    between atoms: C_1  and  C_3
REMARK                            x       y       z     vdW  Elec       q    Type
REMARK                         _______ _______ _______ _____ _____    ______ ____
ROOT
ATOM      1  C   UNL     1      -7.805  33.837  61.102  0.00  0.00    +0.014 A 
ATOM      2  C   UNL     1      -7.532  33.350  59.821  0.00  0.00    +0.011 A 
ATOM      3  C   UNL     1      -6.249  32.962  59.493  0.00  0.00    +0.001 A 
ATOM      4  C   UNL     1      -5.237  33.044  60.434  0.00  0.00    +0.000 A 
ATOM      5  C   UNL     1      -5.501  33.520  61.706  0.00  0.00    +0.001 A 
ATOM      6  C   UNL     1      -6.776  33.918  62.046  0.00  0.00    +0.011 A 
ENDROOT
BRANCH   1   7
ATOM      7  C   UNL     1      -9.169  34.260  61.457  0.00  0.00    +0.258 C 
ATOM      8  O   UNL     1     -10.082  33.462  61.410  0.00  0.00    -0.296 OA
ENDBRANCH   1   7
TORSDOF 1
ENDMDL
MODEL 4
REMARK VINA RESULT:      -3.8     22.250     23.452
REMARK  Name = HBX
REMARK  1 active torsions:
REMARK  status: ('A' for Active; 'I' for Inactive)
REMARK    1  A    between atoms: C_1  and  C_3
REMARK                            x       y       z     vdW  Elec       q    Type
REMARK                         _______ _______ _______ _____ _____    ______ ____
ROOT
ATOM      1  C   UNL     1      -5.806  33.057  60.354  0.00  0.00    +0.014 A 
ATOM      2  C   UNL     1      -7.048  33.300  59.762  0.00  0.00    +0.011 A 
ATOM      3  C   UNL     1      -8.058  33.882  60.500  0.00  0.00    +0.001 A 
ATOM      4  C   UNL     1      -7.838  34.236  61.820  0.00  0.00    +0.000 A 
ATOM      5  C   UNL     1      -6.609  34.004  62.411  0.00  0.00    +0.001 A 
ATOM      6  C   UNL     1      -5.592  33.417  61.688  0.00  0.00    +0.011 A 
ENDROOT
BRANCH   1   7
ATOM      7  C   UNL     1      -4.725  32.431  59.575  0.00  0.00    +0.258 C 
ATOM      8  O   UNL     1      -4.092  33.090  58.779  0.00  0.00    -0.296 OA
ENDBRANCH   1   7
TORSDOF 1
ENDMDL
MODEL 5
REMARK VINA RESULT:      -3.7     16.649     17.613
REMARK  Name = HBX
REMARK  1 active torsions:
REMARK  status: ('A' for Active; 'I' for Inactive)
REMARK    1  A    between atoms: C_1  and  C_3
REMARK                            x       y       z     vdW  Elec       q    Type
REMARK                         _______ _______ _______ _____ _____    ______ ____
ROOT
ATOM      1  C   UNL     1       4.106  43.222  69.645  0.00  0.00    +0.014 A 
ATOM      2  C   UNL     1       5.035  43.760  68.750  0.00  0.00    +0.011 A 
ATOM      3  C   UNL     1       4.807  43.676  67.392  0.00  0.00    +0.001 A 
ATOM      4  C   UNL     1       3.657  43.070  66.916  0.00  0.00    +0.000 A 
ATOM      5  C   UNL     1       2.730  42.540  67.796  0.00  0.00    +0.001 A 
ATOM      6  C   UNL     1       2.946  42.611  69.156  0.00  0.00    +0.011 A 
ENDROOT
BRANCH   1   7
ATOM      7  C   UNL     1       4.344  43.302  71.095  0.00  0.00    +0.258 C 
ATOM      8  O   UNL     1       4.363  42.289  71.763  0.00  0.00    -0.296 OA
ENDBRANCH   1   7
TORSDOF 1
ENDMDL
MODEL 6
REMARK VINA RESULT:      -3.7     22.909     24.293
REMARK  Name = HBX
REMARK  1 active torsions:
REMARK  status: ('A' for Active; 'I' for Inactive)
REMARK    1  A    between atoms: C_1  and  C_3
REMARK                            x       y       z     vdW  Elec       q    Type
REMARK                         _______ _______ _______ _____ _____    ______ ____
ROOT
ATOM      1  C   UNL     1      -9.719  33.788  62.420  0.00  0.00    +0.014 A 
ATOM      2  C   UNL     1      -8.958  34.225  61.332  0.00  0.00    +0.011 A 
ATOM      3  C   UNL     1      -7.590  34.353  61.460  0.00  0.00    +0.001 A 
ATOM      4  C   UNL     1      -6.971  34.039  62.657  0.00  0.00    +0.000 A 
ATOM      5  C   UNL     1      -7.718  33.600  63.737  0.00  0.00    +0.001 A 
ATOM      6  C   UNL     1      -9.086  33.473  63.627  0.00  0.00    +0.011 A 
ENDROOT
BRANCH   1   7
ATOM      7  C   UNL     1     -11.180  33.655  62.295  0.00  0.00    +0.258 C 
ATOM      8  O   UNL     1     -11.732  33.983  61.266  0.00  0.00    -0.296 OA
ENDBRANCH   1   7
TORSDOF 1
ENDMDL
MODEL 7
REMARK VINA RESULT:      -3.7     19.586     20.213
REMARK  Name = HBX
REMARK  1 active torsions:
REMARK  status: ('A' for Active; 'I' for Inactive)
REMARK    1  A    between atoms: C_1  and  C_3
REMARK                            x       y       z     vdW  Elec       q    Type
REMARK                         _______ _______ _______ _____ _____    ______ ____
ROOT
ATOM      1  C   UNL     1      -1.360  28.095  60.254  0.00  0.00    +0.014 A 
ATOM      2  C   UNL     1      -0.560  26.971  60.479  0.00  0.00    +0.011 A 
ATOM      3  C   UNL     1       0.419  26.632  59.567  0.00  0.00    +0.001 A 
ATOM      4  C   UNL     1       0.615  27.409  58.438  0.00  0.00    +0.000 A 
ATOM      5  C   UNL     1      -0.169  28.526  58.211  0.00  0.00    +0.001 A 
ATOM      6  C   UNL     1      -1.155  28.874  59.110  0.00  0.00    +0.011 A 
ENDROOT
BRANCH   1   7
ATOM      7  C   UNL     1      -2.410  28.460  61.218  0.00  0.00    +0.258 C 
ATOM      8  O   UNL     1      -3.538  28.679  60.831  0.00  0.00    -0.296 OA
ENDBRANCH   1   7
TORSDOF 1
ENDMDL
MODEL 8
REMARK VINA RESULT:      -3.6     29.052     30.109
REMARK  Name = HBX
REMARK  1 active torsions:
REMARK  status: ('A' for Active; 'I' for Inactive)
REMARK    1  A    between atoms: C_1  and  C_3
REMARK                            x       y       z     vdW  Elec       q    Type
REMARK                         _______ _______ _______ _____ _____    ______ ____
ROOT
ATOM      1  C   UNL     1      -9.052  17.490  56.603  0.00  0.00    +0.014 A 
ATOM      2  C   UNL     1      -9.719  16.669  55.689  0.00  0.00    +0.011 A 
ATOM      3  C   UNL     1      -9.710  16.987  54.346  0.00  0.00    +0.001 A 
ATOM      4  C   UNL     1      -9.033  18.111  53.904  0.00  0.00    +0.000 A 
ATOM      5  C   UNL     1      -8.366  18.925  54.802  0.00  0.00    +0.001 A 
ATOM      6  C   UNL     1      -8.371  18.623  56.147  0.00  0.00    +0.011 A 
ENDROOT
BRANCH   1   7
ATOM      7  C   UNL     1      -9.062  17.160  58.037  0.00  0.00    +0.258 C 
ATOM      8  O   UNL     1      -8.177  16.478  58.508  0.00  0.00    -0.296 OA
ENDBRANCH   1   7
TORSDOF 1
ENDMDL
MODEL 9
REMARK VINA RESULT:      -3.6     11.430     12.646
REMARK  Name = HBX
REMARK  1 active torsions:
REMARK  status: ('A' for Active; 'I' for Inactive)
REMARK    1  A    between atoms: C_1  and  C_3
REMARK                            x       y       z     vdW  Elec       q    Type
REMARK                         _______ _______ _______ _____ _____    ______ ____
ROOT
ATOM      1  C   UNL     1      16.180  34.716  84.523  0.00  0.00    +0.014 A 
ATOM      2  C   UNL     1      15.807  35.988  84.079  0.00  0.00    +0.011 A 
ATOM      3  C   UNL     1      16.426  37.106  84.599  0.00  0.00    +0.001 A 
ATOM      4  C   UNL     1      17.422  36.968  85.550  0.00  0.00    +0.000 A 
ATOM      5  C   UNL     1      17.801  35.713  85.991  0.00  0.00    +0.001 A 
ATOM      6  C   UNL     1      17.187  34.586  85.485  0.00  0.00    +0.011 A 
ENDROOT
BRANCH   1   7
ATOM      7  C   UNL     1      15.519  33.519  83.978  0.00  0.00    +0.258 C 
ATOM      8  O   UNL     1      15.927  33.017  82.953  0.00  0.00    -0.296 OA
ENDBRANCH   1   7
TORSDOF 1
ENDMDL
