MODEL 1
REMARK VINA RESULT:      -3.4      0.000      0.000
REMARK  Name = IPA
REMARK  3 active torsions:
REMARK  status: ('A' for Active; 'I' for Inactive)
REMARK    1  A    between atoms: C_1  and  C_2
REMARK    2  A    between atoms: C_2  and  C_3
REMARK    3  A    between atoms: C_2  and  O_4
REMARK                            x       y       z     vdW  Elec       q    Type
REMARK                         _______ _______ _______ _____ _____    ______ ____
ROOT
ATOM      1  C   UNL     1       9.652  29.010  77.938  0.00  0.00    +0.037 C 
ATOM      2  C   UNL     1       8.786  28.695  76.716  0.00  0.00    +0.108 C 
ATOM      3  C   UNL     1       9.687  28.385  75.519  0.00  0.00    +0.037 C 
ENDROOT
BRANCH   2   4
ATOM      4  O   UNL     1       7.960  27.565  76.996  0.00  0.00    -0.392 OA
ATOM      5  H   UNL     1       8.131  26.801  76.429  0.00  0.00    +0.210 HD
ENDBRANCH   2   4
TORSDOF 1
ENDMDL
MODEL 2
REMARK VINA RESULT:      -3.2      1.351      1.858
REMARK  Name = IPA
REMARK  3 active torsions:
REMARK  status: ('A' for Active; 'I' for Inactive)
REMARK    1  A    between atoms: C_1  and  C_2
REMARK    2  A    between atoms: C_2  and  C_3
REMARK    3  A    between atoms: C_2  and  O_4
REMARK                            x       y       z     vdW  Elec       q    Type
REMARK                         _______ _______ _______ _____ _____    ______ ____
ROOT
ATOM      1  C   UNL     1       7.860  28.778  77.226  0.00  0.00    +0.037 C 
ATOM      2  C   UNL     1       9.260  28.951  76.632  0.00  0.00    +0.108 C 
ATOM      3  C   UNL     1      10.309  28.601  77.688  0.00  0.00    +0.037 C 
ENDROOT
BRANCH   2   4
ATOM      4  O   UNL     1       9.410  28.086  75.505  0.00  0.00    -0.392 OA
ATOM      5  H   UNL     1       9.732  28.529  74.709  0.00  0.00    +0.210 HD
ENDBRANCH   2   4
TORSDOF 1
ENDMDL
MODEL 3
REMARK VINA RESULT:      -3.1      1.548      2.236
REMARK  Name = IPA
REMARK  3 active torsions:
REMARK  status: ('A' for Active; 'I' for Inactive)
REMARK    1  A    between atoms: C_1  and  C_2
REMARK    2  A    between atoms: C_2  and  C_3
REMARK    3  A    between atoms: C_2  and  O_4
REMARK                            x       y       z     vdW  Elec       q    Type
REMARK                         _______ _______ _______ _____ _____    ______ ____
ROOT
ATOM      1  C   UNL     1       9.850  28.380  75.676  0.00  0.00    +0.037 C 
ATOM      2  C   UNL     1       9.346  29.167  76.888  0.00  0.00    +0.108 C 
ATOM      3  C   UNL     1       7.910  28.746  77.207  0.00  0.00    +0.037 C 
ENDROOT
BRANCH   2   4
ATOM      4  O   UNL     1      10.183  28.898  78.013  0.00  0.00    -0.392 OA
ATOM      5  H   UNL     1      10.947  29.486  78.085  0.00  0.00    +0.210 HD
ENDBRANCH   2   4
TORSDOF 1
ENDMDL
MODEL 4
REMARK VINA RESULT:      -2.7     13.101     13.257
REMARK  Name = IPA
REMARK  3 active torsions:
REMARK  status: ('A' for Active; 'I' for Inactive)
REMARK    1  A    between atoms: C_1  and  C_2
REMARK    2  A    between atoms: C_2  and  C_3
REMARK    3  A    between atoms: C_2  and  O_4
REMARK                            x       y       z     vdW  Elec       q    Type
REMARK                         _______ _______ _______ _____ _____    ______ ____
ROOT
ATOM      1  C   UNL     1       9.573  40.949  77.036  0.00  0.00    +0.037 C 
ATOM      2  C   UNL     1       9.422  41.703  75.713  0.00  0.00    +0.108 C 
ATOM      3  C   UNL     1      10.547  42.731  75.579  0.00  0.00    +0.037 C 
ENDROOT
BRANCH   2   4
ATOM      4  O   UNL     1       9.490  40.777  74.628  0.00  0.00    -0.392 OA
ATOM      5  H   UNL     1       8.693  40.242  74.515  0.00  0.00    +0.210 HD
ENDBRANCH   2   4
TORSDOF 1
ENDMDL
MODEL 5
REMARK VINA RESULT:      -2.5     22.311     22.708
REMARK  Name = IPA
REMARK  3 active torsions:
REMARK  status: ('A' for Active; 'I' for Inactive)
REMARK    1  A    between atoms: C_1  and  C_2
REMARK    2  A    between atoms: C_2  and  C_3
REMARK    3  A    between atoms: C_2  and  O_4
REMARK                            x       y       z     vdW  Elec       q    Type
REMARK                         _______ _______ _______ _____ _____    ______ ____
ROOT
ATOM      1  C   UNL     1      -7.801  33.862  60.635  0.00  0.00    +0.037 C 
ATOM      2  C   UNL     1      -7.030  33.806  61.956  0.00  0.00    +0.108 C 
ATOM      3  C   UNL     1      -5.559  33.497  61.675  0.00  0.00    +0.037 C 
ENDROOT
BRANCH   2   4
ATOM      4  O   UNL     1      -7.134  35.065  62.621  0.00  0.00    -0.392 OA
ATOM      5  H   UNL     1      -6.712  35.796  62.149  0.00  0.00    +0.210 HD
ENDBRANCH   2   4
TORSDOF 1
ENDMDL
MODEL 6
REMARK VINA RESULT:      -2.5     13.317     13.522
REMARK  Name = IPA
REMARK  3 active torsions:
REMARK  status: ('A' for Active; 'I' for Inactive)
REMARK    1  A    between atoms: C_1  and  C_2
REMARK    2  A    between atoms: C_2  and  C_3
REMARK    3  A    between atoms: C_2  and  O_4
REMARK                            x       y       z     vdW  Elec       q    Type
REMARK                         _______ _______ _______ _____ _____    ______ ____
ROOT
ATOM      1  C   UNL     1       9.530  40.588  76.848  0.00  0.00    +0.037 C 
ATOM      2  C   UNL     1      10.710  41.562  76.841  0.00  0.00    +0.108 C 
ATOM      3  C   UNL     1      10.501  42.610  75.747  0.00  0.00    +0.037 C 
ENDROOT
BRANCH   2   4
ATOM      4  O   UNL     1      10.800  42.209  78.111  0.00  0.00    -0.392 OA
ATOM      5  H   UNL     1      11.706  42.364  78.411  0.00  0.00    +0.210 HD
ENDBRANCH   2   4
TORSDOF 1
ENDMDL
MODEL 7
REMARK VINA RESULT:      -2.4     10.802     11.207
REMARK  Name = IPA
REMARK  3 active torsions:
REMARK  status: ('A' for Active; 'I' for Inactive)
REMARK    1  A    between atoms: C_1  and  C_2
REMARK    2  A    between atoms: C_2  and  C_3
REMARK    3  A    between atoms: C_2  and  O_4
REMARK                            x       y       z     vdW  Elec       q    Type
REMARK                         _______ _______ _______ _____ _____    ______ ____
ROOT
ATOM      1  C   UNL     1      15.875  35.076  84.154  0.00  0.00    +0.037 C 
ATOM      2  C   UNL     1      15.893  33.547  84.114  0.00  0.00    +0.108 C 
ATOM      3  C   UNL     1      14.655  33.003  84.829  0.00  0.00    +0.037 C 
ENDROOT
BRANCH   2   4
ATOM      4  O   UNL     1      15.891  33.106  82.755  0.00  0.00    -0.392 OA
ATOM      5  H   UNL     1      15.222  33.534  82.204  0.00  0.00    +0.210 HD
ENDBRANCH   2   4
TORSDOF 1
ENDMDL
MODEL 8
REMARK VINA RESULT:      -2.4     16.161     16.415
REMARK  Name = IPA
REMARK  3 active torsions:
REMARK  status: ('A' for Active; 'I' for Inactive)
REMARK    1  A    between atoms: C_1  and  C_2
REMARK    2  A    between atoms: C_2  and  C_3
REMARK    3  A    between atoms: C_2  and  O_4
REMARK                            x       y       z     vdW  Elec       q    Type
REMARK                         _______ _______ _______ _____ _____    ______ ____
ROOT
ATOM      1  C   UNL     1      15.823  23.290  62.040  0.00  0.00    +0.037 C 
ATOM      2  C   UNL     1      14.325  23.003  62.178  0.00  0.00    +0.108 C 
ATOM      3  C   UNL     1      14.095  21.491  62.201  0.00  0.00    +0.037 C 
ENDROOT
BRANCH   2   4
ATOM      4  O   UNL     1      13.841  23.577  63.393  0.00  0.00    -0.392 OA
ATOM      5  H   UNL     1      13.278  24.353  63.265  0.00  0.00    +0.210 HD
ENDBRANCH   2   4
TORSDOF 1
ENDMDL
MODEL 9
REMARK VINA RESULT:      -2.3     11.619     11.765
REMARK  Name = IPA
REMARK  3 active torsions:
REMARK  status: ('A' for Active; 'I' for Inactive)
REMARK    1  A    between atoms: C_1  and  C_2
REMARK    2  A    between atoms: C_2  and  C_3
REMARK    3  A    between atoms: C_2  and  O_4
REMARK                            x       y       z     vdW  Elec       q    Type
REMARK                         _______ _______ _______ _____ _____    ______ ____
ROOT
ATOM      1  C   UNL     1      10.598  17.118  79.032  0.00  0.00    +0.037 C 
ATOM      2  C   UNL     1      10.868  17.723  80.412  0.00  0.00    +0.108 C 
ATOM      3  C   UNL     1      11.650  16.722  81.264  0.00  0.00    +0.037 C 
ENDROOT
BRANCH   2   4
ATOM      4  O   UNL     1      11.629  18.922  80.265  0.00  0.00    -0.392 OA
ATOM      5  H   UNL     1      11.166  19.628  79.795  0.00  0.00    +0.210 HD
ENDBRANCH   2   4
TORSDOF 1
ENDMDL
