REMARK  Name = IPA
REMARK  3 active torsions:
REMARK  status: ('A' for Active; 'I' for Inactive)
REMARK    1  A    between atoms: C_1  and  C_2
REMARK    2  A    between atoms: C_2  and  C_3
REMARK    3  A    between atoms: C_2  and  O_4
REMARK                            x       y       z     vdW  Elec       q    Type
REMARK                         _______ _______ _______ _____ _____    ______ ____
ROOT
ATOM      1  C   UNL     1      -0.622   1.298   0.111  0.00  0.00    +0.037 C 
ATOM      2  C   UNL     1       0.010  -0.007  -0.379  0.00  0.00    +0.108 C 
ATOM      3  C   UNL     1       1.459  -0.085   0.105  0.00  0.00    +0.037 C 
ENDROOT
BRANCH   2   4
ATOM      4  O   UNL     1      -0.726  -1.116   0.138  0.00  0.00    -0.392 OA
ATOM      5  H   UNL     1      -1.655  -1.131  -0.129  0.00  0.00    +0.210 HD
ENDBRANCH   2   4
TORSDOF 1
