MODEL 1
REMARK VINA RESULT:      -5.0      0.000      0.000
REMARK  Name = IPH
REMARK  1 active torsions:
REMARK  status: ('A' for Active; 'I' for Inactive)
REMARK    1  A    between atoms: C_1  and  O_7
REMARK                            x       y       z     vdW  Elec       q    Type
REMARK                         _______ _______ _______ _____ _____    ______ ____
ROOT
ATOM      1  C   UNL     1       8.474  28.796  76.832  0.00  0.00    +0.117 A 
ATOM      2  C   UNL     1       9.125  28.935  78.049  0.00  0.00    +0.045 A 
ATOM      3  C   UNL     1      10.477  28.677  78.142  0.00  0.00    +0.004 A 
ATOM      4  C   UNL     1      11.188  28.292  77.020  0.00  0.00    +0.000 A 
ATOM      5  C   UNL     1      10.542  28.158  75.804  0.00  0.00    +0.004 A 
ATOM      6  C   UNL     1       9.189  28.409  75.708  0.00  0.00    +0.045 A 
ENDROOT
BRANCH   1   7
ATOM      7  O   UNL     1       7.141  29.044  76.740  0.00  0.00    -0.507 OA
ATOM      8  H   UNL     1       6.687  28.230  76.995  0.00  0.00    +0.292 HD
ENDBRANCH   1   7
TORSDOF 1
ENDMDL
MODEL 2
REMARK VINA RESULT:      -4.4      1.682      2.457
REMARK  Name = IPH
REMARK  1 active torsions:
REMARK  status: ('A' for Active; 'I' for Inactive)
REMARK    1  A    between atoms: C_1  and  O_7
REMARK                            x       y       z     vdW  Elec       q    Type
REMARK                         _______ _______ _______ _____ _____    ______ ____
ROOT
ATOM      1  C   UNL     1      10.181  28.893  78.186  0.00  0.00    +0.117 A 
ATOM      2  C   UNL     1       8.868  29.118  77.803  0.00  0.00    +0.045 A 
ATOM      3  C   UNL     1       8.466  28.832  76.514  0.00  0.00    +0.004 A 
ATOM      4  C   UNL     1       9.370  28.310  75.607  0.00  0.00    +0.000 A 
ATOM      5  C   UNL     1      10.680  28.081  75.988  0.00  0.00    +0.004 A 
ATOM      6  C   UNL     1      11.086  28.371  77.274  0.00  0.00    +0.045 A 
ENDROOT
BRANCH   1   7
ATOM      7  O   UNL     1      10.580  29.179  79.454  0.00  0.00    -0.507 OA
ATOM      8  H   UNL     1      10.337  28.421  80.001  0.00  0.00    +0.292 HD
ENDBRANCH   1   7
TORSDOF 1
ENDMDL
MODEL 3
REMARK VINA RESULT:      -4.1     15.958     17.053
REMARK  Name = IPH
REMARK  1 active torsions:
REMARK  status: ('A' for Active; 'I' for Inactive)
REMARK    1  A    between atoms: C_1  and  O_7
REMARK                            x       y       z     vdW  Elec       q    Type
REMARK                         _______ _______ _______ _____ _____    ______ ____
ROOT
ATOM      1  C   UNL     1      14.004  22.794  62.636  0.00  0.00    +0.117 A 
ATOM      2  C   UNL     1      14.915  23.753  62.218  0.00  0.00    +0.045 A 
ATOM      3  C   UNL     1      15.798  23.466  61.196  0.00  0.00    +0.004 A 
ATOM      4  C   UNL     1      15.766  22.229  60.579  0.00  0.00    +0.000 A 
ATOM      5  C   UNL     1      14.855  21.273  60.991  0.00  0.00    +0.004 A 
ATOM      6  C   UNL     1      13.975  21.554  62.017  0.00  0.00    +0.045 A 
ENDROOT
BRANCH   1   7
ATOM      7  O   UNL     1      13.138  23.072  63.645  0.00  0.00    -0.507 OA
ATOM      8  H   UNL     1      13.326  22.445  64.355  0.00  0.00    +0.292 HD
ENDBRANCH   1   7
TORSDOF 1
ENDMDL
MODEL 4
REMARK VINA RESULT:      -3.9     16.281     17.306
REMARK  Name = IPH
REMARK  1 active torsions:
REMARK  status: ('A' for Active; 'I' for Inactive)
REMARK    1  A    between atoms: C_1  and  O_7
REMARK                            x       y       z     vdW  Elec       q    Type
REMARK                         _______ _______ _______ _____ _____    ______ ____
ROOT
ATOM      1  C   UNL     1      15.775  23.824  61.575  0.00  0.00    +0.117 A 
ATOM      2  C   UNL     1      15.989  22.555  61.058  0.00  0.00    +0.045 A 
ATOM      3  C   UNL     1      15.105  21.535  61.346  0.00  0.00    +0.004 A 
ATOM      4  C   UNL     1      13.998  21.780  62.139  0.00  0.00    +0.000 A 
ATOM      5  C   UNL     1      13.781  23.047  62.651  0.00  0.00    +0.004 A 
ATOM      6  C   UNL     1      14.666  24.067  62.370  0.00  0.00    +0.045 A 
ENDROOT
BRANCH   1   7
ATOM      7  O   UNL     1      16.648  24.828  61.297  0.00  0.00    -0.507 OA
ATOM      8  H   UNL     1      17.463  24.412  60.988  0.00  0.00    +0.292 HD
ENDBRANCH   1   7
TORSDOF 1
ENDMDL
MODEL 5
REMARK VINA RESULT:      -3.9     22.168     23.288
REMARK  Name = IPH
REMARK  1 active torsions:
REMARK  status: ('A' for Active; 'I' for Inactive)
REMARK    1  A    between atoms: C_1  and  O_7
REMARK                            x       y       z     vdW  Elec       q    Type
REMARK                         _______ _______ _______ _____ _____    ______ ____
ROOT
ATOM      1  C   UNL     1      -6.899  34.187  61.748  0.00  0.00    +0.117 A 
ATOM      2  C   UNL     1      -7.776  34.017  60.687  0.00  0.00    +0.045 A 
ATOM      3  C   UNL     1      -7.400  33.262  59.595  0.00  0.00    +0.004 A 
ATOM      4  C   UNL     1      -6.153  32.664  59.562  0.00  0.00    +0.000 A 
ATOM      5  C   UNL     1      -5.278  32.829  60.621  0.00  0.00    +0.004 A 
ATOM      6  C   UNL     1      -5.649  33.588  61.712  0.00  0.00    +0.045 A 
ENDROOT
BRANCH   1   7
ATOM      7  O   UNL     1      -7.265  34.935  62.822  0.00  0.00    -0.507 OA
ATOM      8  H   UNL     1      -7.876  35.609  62.498  0.00  0.00    +0.292 HD
ENDBRANCH   1   7
TORSDOF 1
ENDMDL
MODEL 6
REMARK VINA RESULT:      -3.8     22.182     23.274
REMARK  Name = IPH
REMARK  1 active torsions:
REMARK  status: ('A' for Active; 'I' for Inactive)
REMARK    1  A    between atoms: C_1  and  O_7
REMARK                            x       y       z     vdW  Elec       q    Type
REMARK                         _______ _______ _______ _____ _____    ______ ____
ROOT
ATOM      1  C   UNL     1      -7.012  34.145  61.836  0.00  0.00    +0.117 A 
ATOM      2  C   UNL     1      -5.737  33.601  61.798  0.00  0.00    +0.045 A 
ATOM      3  C   UNL     1      -5.303  32.940  60.666  0.00  0.00    +0.004 A 
ATOM      4  C   UNL     1      -6.133  32.832  59.566  0.00  0.00    +0.000 A 
ATOM      5  C   UNL     1      -7.404  33.378  59.600  0.00  0.00    +0.004 A 
ATOM      6  C   UNL     1      -7.844  34.033  60.732  0.00  0.00    +0.045 A 
ENDROOT
BRANCH   1   7
ATOM      7  O   UNL     1      -7.444  34.790  62.952  0.00  0.00    -0.507 OA
ATOM      8  H   UNL     1      -8.300  34.408  63.182  0.00  0.00    +0.292 HD
ENDBRANCH   1   7
TORSDOF 1
ENDMDL
MODEL 7
REMARK VINA RESULT:      -3.7     22.007     23.188
REMARK  Name = IPH
REMARK  1 active torsions:
REMARK  status: ('A' for Active; 'I' for Inactive)
REMARK    1  A    between atoms: C_1  and  O_7
REMARK                            x       y       z     vdW  Elec       q    Type
REMARK                         _______ _______ _______ _____ _____    ______ ____
ROOT
ATOM      1  C   UNL     1      -5.463  32.824  60.605  0.00  0.00    +0.117 A 
ATOM      2  C   UNL     1      -6.475  32.956  59.667  0.00  0.00    +0.045 A 
ATOM      3  C   UNL     1      -7.635  33.629  59.993  0.00  0.00    +0.004 A 
ATOM      4  C   UNL     1      -7.784  34.184  61.251  0.00  0.00    +0.000 A 
ATOM      5  C   UNL     1      -6.773  34.057  62.187  0.00  0.00    +0.004 A 
ATOM      6  C   UNL     1      -5.615  33.380  61.867  0.00  0.00    +0.045 A 
ENDROOT
BRANCH   1   7
ATOM      7  O   UNL     1      -4.322  32.156  60.288  0.00  0.00    -0.507 OA
ATOM      8  H   UNL     1      -4.413  31.263  60.645  0.00  0.00    +0.292 HD
ENDBRANCH   1   7
TORSDOF 1
ENDMDL
MODEL 8
REMARK VINA RESULT:      -3.7     21.998     23.113
REMARK  Name = IPH
REMARK  1 active torsions:
REMARK  status: ('A' for Active; 'I' for Inactive)
REMARK    1  A    between atoms: C_1  and  O_7
REMARK                            x       y       z     vdW  Elec       q    Type
REMARK                         _______ _______ _______ _____ _____    ______ ____
ROOT
ATOM      1  C   UNL     1      -5.472  32.818  60.630  0.00  0.00    +0.117 A 
ATOM      2  C   UNL     1      -5.626  33.377  61.889  0.00  0.00    +0.045 A 
ATOM      3  C   UNL     1      -6.779  34.068  62.201  0.00  0.00    +0.004 A 
ATOM      4  C   UNL     1      -7.787  34.193  61.262  0.00  0.00    +0.000 A 
ATOM      5  C   UNL     1      -7.638  33.632  60.007  0.00  0.00    +0.004 A 
ATOM      6  C   UNL     1      -6.483  32.945  59.690  0.00  0.00    +0.045 A 
ENDROOT
BRANCH   1   7
ATOM      7  O   UNL     1      -4.335  32.142  60.319  0.00  0.00    -0.507 OA
ATOM      8  H   UNL     1      -3.612  32.782  60.349  0.00  0.00    +0.292 HD
ENDBRANCH   1   7
TORSDOF 1
ENDMDL
MODEL 9
REMARK VINA RESULT:      -3.5     20.478     21.480
REMARK  Name = IPH
REMARK  1 active torsions:
REMARK  status: ('A' for Active; 'I' for Inactive)
REMARK    1  A    between atoms: C_1  and  O_7
REMARK                            x       y       z     vdW  Elec       q    Type
REMARK                         _______ _______ _______ _____ _____    ______ ____
ROOT
ATOM      1  C   UNL     1       0.130  25.396  56.973  0.00  0.00    +0.117 A 
ATOM      2  C   UNL     1      -0.388  24.848  58.137  0.00  0.00    +0.045 A 
ATOM      3  C   UNL     1      -0.298  25.543  59.326  0.00  0.00    +0.004 A 
ATOM      4  C   UNL     1       0.297  26.791  59.355  0.00  0.00    +0.000 A 
ATOM      5  C   UNL     1       0.809  27.342  58.194  0.00  0.00    +0.004 A 
ATOM      6  C   UNL     1       0.726  26.647  57.005  0.00  0.00    +0.045 A 
ENDROOT
BRANCH   1   7
ATOM      7  O   UNL     1       0.047  24.710  55.802  0.00  0.00    -0.507 OA
ATOM      8  H   UNL     1      -0.886  24.693  55.553  0.00  0.00    +0.292 HD
ENDBRANCH   1   7
TORSDOF 1
ENDMDL
