MODEL 1
REMARK VINA RESULT:      -1.8      0.000      0.000
REMARK  Name = NME
REMARK  1 active torsions:
REMARK  status: ('A' for Active; 'I' for Inactive)
REMARK    1  A    between atoms: N_1  and  C_2
REMARK                            x       y       z     vdW  Elec       q    Type
REMARK                         _______ _______ _______ _____ _____    ______ ____
ROOT
ATOM      1  N   UNL     1     -11.922  15.976  89.573  0.00  0.00    -0.333 NA
ATOM      2  H   UNL     1     -11.452  15.119  89.822  0.00  0.00    +0.118 HD
ATOM      3  H   UNL     1     -12.901  15.810  89.386  0.00  0.00    +0.118 HD
ATOM      4  C   UNL     1     -11.269  16.623  88.427  0.00  0.00    +0.097 C 
ENDROOT
TORSDOF 0
ENDMDL
MODEL 2
REMARK VINA RESULT:      -1.6     36.681     36.681
REMARK  Name = NME
REMARK  1 active torsions:
REMARK  status: ('A' for Active; 'I' for Inactive)
REMARK    1  A    between atoms: N_1  and  C_2
REMARK                            x       y       z     vdW  Elec       q    Type
REMARK                         _______ _______ _______ _____ _____    ______ ____
ROOT
ATOM      1  N   UNL     1      15.942  16.505  63.839  0.00  0.00    -0.333 NA
ATOM      2  H   UNL     1      15.229  16.796  63.188  0.00  0.00    +0.118 HD
ATOM      3  H   UNL     1      16.290  15.586  63.607  0.00  0.00    +0.118 HD
ATOM      4  C   UNL     1      15.443  16.546  65.221  0.00  0.00    +0.097 C 
ENDROOT
TORSDOF 0
ENDMDL
MODEL 3
REMARK VINA RESULT:      -1.6     37.004     37.004
REMARK  Name = NME
REMARK  1 active torsions:
REMARK  status: ('A' for Active; 'I' for Inactive)
REMARK    1  A    between atoms: N_1  and  C_2
REMARK                            x       y       z     vdW  Elec       q    Type
REMARK                         _______ _______ _______ _____ _____    ______ ____
ROOT
ATOM      1  N   UNL     1      13.269  23.083  63.472  0.00  0.00    -0.333 NA
ATOM      2  H   UNL     1      13.747  23.023  64.359  0.00  0.00    +0.118 HD
ATOM      3  H   UNL     1      12.843  22.199  63.231  0.00  0.00    +0.118 HD
ATOM      4  C   UNL     1      14.180  23.535  62.412  0.00  0.00    +0.097 C 
ENDROOT
TORSDOF 0
ENDMDL
MODEL 4
REMARK VINA RESULT:      -1.6     42.004     42.004
REMARK  Name = NME
REMARK  1 active torsions:
REMARK  status: ('A' for Active; 'I' for Inactive)
REMARK    1  A    between atoms: N_1  and  C_2
REMARK                            x       y       z     vdW  Elec       q    Type
REMARK                         _______ _______ _______ _____ _____    ______ ____
ROOT
ATOM      1  N   UNL     1     -18.022  38.660  53.811  0.00  0.00    -0.333 NA
ATOM      2  H   UNL     1     -18.230  38.928  52.861  0.00  0.00    +0.118 HD
ATOM      3  H   UNL     1     -17.756  37.688  53.862  0.00  0.00    +0.118 HD
ATOM      4  C   UNL     1     -19.157  38.944  54.700  0.00  0.00    +0.097 C 
ENDROOT
TORSDOF 0
ENDMDL
MODEL 5
REMARK VINA RESULT:      -1.6     35.837     35.837
REMARK  Name = NME
REMARK  1 active torsions:
REMARK  status: ('A' for Active; 'I' for Inactive)
REMARK    1  A    between atoms: N_1  and  C_2
REMARK                            x       y       z     vdW  Elec       q    Type
REMARK                         _______ _______ _______ _____ _____    ______ ____
ROOT
ATOM      1  N   UNL     1       9.468  40.980  74.860  0.00  0.00    -0.333 NA
ATOM      2  H   UNL     1       9.988  40.795  74.015  0.00  0.00    +0.118 HD
ATOM      3  H   UNL     1       8.488  41.112  74.658  0.00  0.00    +0.118 HD
ATOM      4  C   UNL     1      10.019  42.138  75.576  0.00  0.00    +0.097 C 
ENDROOT
TORSDOF 0
ENDMDL
MODEL 6
REMARK VINA RESULT:      -1.6     25.999     25.999
REMARK  Name = NME
REMARK  1 active torsions:
REMARK  status: ('A' for Active; 'I' for Inactive)
REMARK    1  A    between atoms: N_1  and  C_2
REMARK                            x       y       z     vdW  Elec       q    Type
REMARK                         _______ _______ _______ _____ _____    ______ ____
ROOT
ATOM      1  N   UNL     1       7.221  28.581  77.121  0.00  0.00    -0.333 NA
ATOM      2  H   UNL     1       7.009  28.076  77.968  0.00  0.00    +0.118 HD
ATOM      3  H   UNL     1       6.609  28.298  76.369  0.00  0.00    +0.118 HD
ATOM      4  C   UNL     1       8.631  28.410  76.745  0.00  0.00    +0.097 C 
ENDROOT
TORSDOF 0
ENDMDL
MODEL 7
REMARK VINA RESULT:      -1.6     28.300     28.300
REMARK  Name = NME
REMARK  1 active torsions:
REMARK  status: ('A' for Active; 'I' for Inactive)
REMARK    1  A    between atoms: N_1  and  C_2
REMARK                            x       y       z     vdW  Elec       q    Type
REMARK                         _______ _______ _______ _____ _____    ______ ____
ROOT
ATOM      1  N   UNL     1     -13.937  28.130  62.880  0.00  0.00    -0.333 NA
ATOM      2  H   UNL     1     -13.163  28.209  62.238  0.00  0.00    +0.118 HD
ATOM      3  H   UNL     1     -14.760  28.582  62.511  0.00  0.00    +0.118 HD
ATOM      4  C   UNL     1     -13.585  28.671  64.200  0.00  0.00    +0.097 C 
ENDROOT
TORSDOF 0
ENDMDL
MODEL 8
REMARK VINA RESULT:      -1.6     30.744     30.744
REMARK  Name = NME
REMARK  1 active torsions:
REMARK  status: ('A' for Active; 'I' for Inactive)
REMARK    1  A    between atoms: N_1  and  C_2
REMARK                            x       y       z     vdW  Elec       q    Type
REMARK                         _______ _______ _______ _____ _____    ______ ____
ROOT
ATOM      1  N   UNL     1       0.645  40.200  73.766  0.00  0.00    -0.333 NA
ATOM      2  H   UNL     1       0.156  41.058  73.559  0.00  0.00    +0.118 HD
ATOM      3  H   UNL     1       0.021  39.408  73.719  0.00  0.00    +0.118 HD
ATOM      4  C   UNL     1       1.305  40.274  75.077  0.00  0.00    +0.097 C 
ENDROOT
TORSDOF 0
ENDMDL
MODEL 9
REMARK VINA RESULT:      -1.5     32.899     32.899
REMARK  Name = NME
REMARK  1 active torsions:
REMARK  status: ('A' for Active; 'I' for Inactive)
REMARK    1  A    between atoms: N_1  and  C_2
REMARK                            x       y       z     vdW  Elec       q    Type
REMARK                         _______ _______ _______ _____ _____    ______ ____
ROOT
ATOM      1  N   UNL     1      -7.227  34.895  62.537  0.00  0.00    -0.333 NA
ATOM      2  H   UNL     1      -6.567  34.179  62.798  0.00  0.00    +0.118 HD
ATOM      3  H   UNL     1      -7.755  35.209  63.338  0.00  0.00    +0.118 HD
ATOM      4  C   UNL     1      -8.119  34.426  61.468  0.00  0.00    +0.097 C 
ENDROOT
TORSDOF 0
ENDMDL
