MODEL 1
REMARK VINA RESULT:      -3.6      0.000      0.000
REMARK  Name = TBU
REMARK  4 active torsions:
REMARK  status: ('A' for Active; 'I' for Inactive)
REMARK    1  A    between atoms: O_1  and  C_2
REMARK    2  A    between atoms: C_2  and  C_3
REMARK    3  A    between atoms: C_2  and  C_4
REMARK    4  A    between atoms: C_2  and  C_5
REMARK                            x       y       z     vdW  Elec       q    Type
REMARK                         _______ _______ _______ _____ _____    ______ ____
ROOT
ATOM      1  C   UNL     1       8.655  28.544  76.835  0.00  0.00    +0.058 C 
ATOM      2  C   UNL     1       7.553  29.582  76.610  0.00  0.00    +0.041 C 
ATOM      3  C   UNL     1       9.498  28.413  75.565  0.00  0.00    +0.041 C 
ATOM      4  C   UNL     1       9.547  28.992  77.995  0.00  0.00    +0.041 C 
ENDROOT
BRANCH   1   5
ATOM      5  O   UNL     1       8.064  27.282  77.148  0.00  0.00    -0.389 OA
ATOM      6  H   UNL     1       7.919  27.138  78.093  0.00  0.00    +0.210 HD
ENDBRANCH   1   5
TORSDOF 1
ENDMDL
MODEL 2
REMARK VINA RESULT:      -3.0      1.854      2.467
REMARK  Name = TBU
REMARK  4 active torsions:
REMARK  status: ('A' for Active; 'I' for Inactive)
REMARK    1  A    between atoms: O_1  and  C_2
REMARK    2  A    between atoms: C_2  and  C_3
REMARK    3  A    between atoms: C_2  and  C_4
REMARK    4  A    between atoms: C_2  and  C_5
REMARK                            x       y       z     vdW  Elec       q    Type
REMARK                         _______ _______ _______ _____ _____    ______ ____
ROOT
ATOM      1  C   UNL     1       9.776  28.745  76.935  0.00  0.00    +0.058 C 
ATOM      2  C   UNL     1      10.992  27.818  76.984  0.00  0.00    +0.041 C 
ATOM      3  C   UNL     1       9.749  29.482  75.594  0.00  0.00    +0.041 C 
ATOM      4  C   UNL     1       8.498  27.917  77.087  0.00  0.00    +0.041 C 
ENDROOT
BRANCH   1   5
ATOM      5  O   UNL     1       9.857  29.695  78.000  0.00  0.00    -0.389 OA
ATOM      6  H   UNL     1       9.880  29.297  78.880  0.00  0.00    +0.210 HD
ENDBRANCH   1   5
TORSDOF 1
ENDMDL
MODEL 3
REMARK VINA RESULT:      -2.9     12.982     13.400
REMARK  Name = TBU
REMARK  4 active torsions:
REMARK  status: ('A' for Active; 'I' for Inactive)
REMARK    1  A    between atoms: O_1  and  C_2
REMARK    2  A    between atoms: C_2  and  C_3
REMARK    3  A    between atoms: C_2  and  C_4
REMARK    4  A    between atoms: C_2  and  C_5
REMARK                            x       y       z     vdW  Elec       q    Type
REMARK                         _______ _______ _______ _____ _____    ______ ____
ROOT
ATOM      1  C   UNL     1       9.564  41.834  75.813  0.00  0.00    +0.058 C 
ATOM      2  C   UNL     1       8.346  42.748  75.964  0.00  0.00    +0.041 C 
ATOM      3  C   UNL     1      10.798  42.679  75.488  0.00  0.00    +0.041 C 
ATOM      4  C   UNL     1       9.796  41.075  77.121  0.00  0.00    +0.041 C 
ENDROOT
BRANCH   1   5
ATOM      5  O   UNL     1       9.332  40.901  74.756  0.00  0.00    -0.389 OA
ATOM      6  H   UNL     1       8.412  40.616  74.678  0.00  0.00    +0.210 HD
ENDBRANCH   1   5
TORSDOF 1
ENDMDL
MODEL 4
REMARK VINA RESULT:      -2.9     21.561     22.174
REMARK  Name = TBU
REMARK  4 active torsions:
REMARK  status: ('A' for Active; 'I' for Inactive)
REMARK    1  A    between atoms: O_1  and  C_2
REMARK    2  A    between atoms: C_2  and  C_3
REMARK    3  A    between atoms: C_2  and  C_4
REMARK    4  A    between atoms: C_2  and  C_5
REMARK                            x       y       z     vdW  Elec       q    Type
REMARK                         _______ _______ _______ _____ _____    ______ ____
ROOT
ATOM      1  C   UNL     1      -6.936  33.727  62.101  0.00  0.00    +0.058 C 
ATOM      2  C   UNL     1      -7.228  32.736  63.229  0.00  0.00    +0.041 C 
ATOM      3  C   UNL     1      -5.497  33.538  61.616  0.00  0.00    +0.041 C 
ATOM      4  C   UNL     1      -7.902  33.477  60.941  0.00  0.00    +0.041 C 
ENDROOT
BRANCH   1   5
ATOM      5  O   UNL     1      -7.106  35.062  62.583  0.00  0.00    -0.389 OA
ATOM      6  H   UNL     1      -7.787  35.564  62.116  0.00  0.00    +0.210 HD
ENDBRANCH   1   5
TORSDOF 1
ENDMDL
MODEL 5
REMARK VINA RESULT:      -2.9     21.561     22.161
REMARK  Name = TBU
REMARK  4 active torsions:
REMARK  status: ('A' for Active; 'I' for Inactive)
REMARK    1  A    between atoms: O_1  and  C_2
REMARK    2  A    between atoms: C_2  and  C_3
REMARK    3  A    between atoms: C_2  and  C_4
REMARK    4  A    between atoms: C_2  and  C_5
REMARK                            x       y       z     vdW  Elec       q    Type
REMARK                         _______ _______ _______ _____ _____    ______ ____
ROOT
ATOM      1  C   UNL     1      -6.936  33.727  62.099  0.00  0.00    +0.058 C 
ATOM      2  C   UNL     1      -7.903  33.477  60.940  0.00  0.00    +0.041 C 
ATOM      3  C   UNL     1      -7.225  32.736  63.228  0.00  0.00    +0.041 C 
ATOM      4  C   UNL     1      -5.498  33.539  61.612  0.00  0.00    +0.041 C 
ENDROOT
BRANCH   1   5
ATOM      5  O   UNL     1      -7.105  35.062  62.581  0.00  0.00    -0.389 OA
ATOM      6  H   UNL     1      -6.449  35.687  62.246  0.00  0.00    +0.210 HD
ENDBRANCH   1   5
TORSDOF 1
ENDMDL
MODEL 6
REMARK VINA RESULT:      -2.7     16.970     17.914
REMARK  Name = TBU
REMARK  4 active torsions:
REMARK  status: ('A' for Active; 'I' for Inactive)
REMARK    1  A    between atoms: O_1  and  C_2
REMARK    2  A    between atoms: C_2  and  C_3
REMARK    3  A    between atoms: C_2  and  C_4
REMARK    4  A    between atoms: C_2  and  C_5
REMARK                            x       y       z     vdW  Elec       q    Type
REMARK                         _______ _______ _______ _____ _____    ______ ____
ROOT
ATOM      1  C   UNL     1      16.248  23.563  61.543  0.00  0.00    +0.058 C 
ATOM      2  C   UNL     1      16.082  22.788  60.235  0.00  0.00    +0.041 C 
ATOM      3  C   UNL     1      14.882  23.729  62.214  0.00  0.00    +0.041 C 
ATOM      4  C   UNL     1      17.183  22.792  62.477  0.00  0.00    +0.041 C 
ENDROOT
BRANCH   1   5
ATOM      5  O   UNL     1      16.803  24.850  61.268  0.00  0.00    -0.389 OA
ATOM      6  H   UNL     1      16.381  25.573  61.752  0.00  0.00    +0.210 HD
ENDBRANCH   1   5
TORSDOF 1
ENDMDL
MODEL 7
REMARK VINA RESULT:      -2.7     16.534     17.247
REMARK  Name = TBU
REMARK  4 active torsions:
REMARK  status: ('A' for Active; 'I' for Inactive)
REMARK    1  A    between atoms: O_1  and  C_2
REMARK    2  A    between atoms: C_2  and  C_3
REMARK    3  A    between atoms: C_2  and  C_4
REMARK    4  A    between atoms: C_2  and  C_5
REMARK                            x       y       z     vdW  Elec       q    Type
REMARK                         _______ _______ _______ _____ _____    ______ ____
ROOT
ATOM      1  C   UNL     1      15.209  22.555  62.147  0.00  0.00    +0.058 C 
ATOM      2  C   UNL     1      14.194  21.493  62.576  0.00  0.00    +0.041 C 
ATOM      3  C   UNL     1      15.607  22.319  60.689  0.00  0.00    +0.041 C 
ATOM      4  C   UNL     1      14.582  23.944  62.287  0.00  0.00    +0.041 C 
ENDROOT
BRANCH   1   5
ATOM      5  O   UNL     1      16.368  22.469  62.978  0.00  0.00    -0.389 OA
ATOM      6  H   UNL     1      16.961  21.741  62.751  0.00  0.00    +0.210 HD
ENDBRANCH   1   5
TORSDOF 1
ENDMDL
MODEL 8
REMARK VINA RESULT:      -2.7     36.845     37.371
REMARK  Name = TBU
REMARK  4 active torsions:
REMARK  status: ('A' for Active; 'I' for Inactive)
REMARK    1  A    between atoms: O_1  and  C_2
REMARK    2  A    between atoms: C_2  and  C_3
REMARK    3  A    between atoms: C_2  and  C_4
REMARK    4  A    between atoms: C_2  and  C_5
REMARK                            x       y       z     vdW  Elec       q    Type
REMARK                         _______ _______ _______ _____ _____    ______ ____
ROOT
ATOM      1  C   UNL     1     -19.159  39.157  54.332  0.00  0.00    +0.058 C 
ATOM      2  C   UNL     1     -20.161  39.292  53.184  0.00  0.00    +0.041 C 
ATOM      3  C   UNL     1     -18.874  40.538  54.926  0.00  0.00    +0.041 C 
ATOM      4  C   UNL     1     -19.744  38.247  55.414  0.00  0.00    +0.041 C 
ENDROOT
BRANCH   1   5
ATOM      5  O   UNL     1     -17.943  38.590  53.839  0.00  0.00    -0.389 OA
ATOM      6  H   UNL     1     -17.160  38.833  54.352  0.00  0.00    +0.210 HD
ENDBRANCH   1   5
TORSDOF 1
ENDMDL
MODEL 9
REMARK VINA RESULT:      -2.6     11.786     12.431
REMARK  Name = TBU
REMARK  4 active torsions:
REMARK  status: ('A' for Active; 'I' for Inactive)
REMARK    1  A    between atoms: O_1  and  C_2
REMARK    2  A    between atoms: C_2  and  C_3
REMARK    3  A    between atoms: C_2  and  C_4
REMARK    4  A    between atoms: C_2  and  C_5
REMARK                            x       y       z     vdW  Elec       q    Type
REMARK                         _______ _______ _______ _____ _____    ______ ____
ROOT
ATOM      1  C   UNL     1       2.801  22.146  68.208  0.00  0.00    +0.058 C 
ATOM      2  C   UNL     1       4.319  22.262  68.053  0.00  0.00    +0.041 C 
ATOM      3  C   UNL     1       2.119  22.650  66.934  0.00  0.00    +0.041 C 
ATOM      4  C   UNL     1       2.424  20.682  68.443  0.00  0.00    +0.041 C 
ENDROOT
BRANCH   1   5
ATOM      5  O   UNL     1       2.374  22.933  69.321  0.00  0.00    -0.389 OA
ATOM      6  H   UNL     1       1.524  23.375  69.187  0.00  0.00    +0.210 HD
ENDBRANCH   1   5
TORSDOF 1
ENDMDL
