MODEL 1
REMARK VINA RESULT:      -3.3      0.000      0.000
REMARK  Name = URE
REMARK  0 active torsions:
REMARK  status: ('A' for Active; 'I' for Inactive)
REMARK                            x       y       z     vdW  Elec       q    Type
REMARK                         _______ _______ _______ _____ _____    ______ ____
ROOT
ATOM      1  C   UNL     1      15.645  16.177  65.251  0.00  0.00    +0.294 C 
ATOM      2  N   UNL     1      15.840  14.955  65.782  0.00  0.00    -0.314 N 
ATOM      3  H   UNL     1      16.129  14.221  65.217  0.00  0.00    +0.146 HD
ATOM      4  H   UNL     1      15.691  14.808  66.729  0.00  0.00    +0.146 HD
ATOM      5  N   UNL     1      15.851  16.382  63.935  0.00  0.00    -0.314 N 
ATOM      6  H   UNL     1      16.143  15.649  63.371  0.00  0.00    +0.146 HD
ATOM      7  H   UNL     1      15.710  17.262  63.553  0.00  0.00    +0.146 HD
ATOM      8  O   UNL     1      15.282  17.096  65.958  0.00  0.00    -0.253 OA
ENDROOT
TORSDOF 0
ENDMDL
MODEL 2
REMARK VINA RESULT:      -3.2     35.126     35.449
REMARK  Name = URE
REMARK  0 active torsions:
REMARK  status: ('A' for Active; 'I' for Inactive)
REMARK                            x       y       z     vdW  Elec       q    Type
REMARK                         _______ _______ _______ _____ _____    ______ ____
ROOT
ATOM      1  C   UNL     1     -11.090  16.225  88.431  0.00  0.00    +0.294 C 
ATOM      2  N   UNL     1     -10.353  15.256  87.855  0.00  0.00    -0.314 N 
ATOM      3  H   UNL     1     -10.310  14.375  88.258  0.00  0.00    +0.146 HD
ATOM      4  H   UNL     1      -9.866  15.439  87.036  0.00  0.00    +0.146 HD
ATOM      5  N   UNL     1     -11.768  15.972  89.568  0.00  0.00    -0.314 N 
ATOM      6  H   UNL     1     -11.727  15.090  89.970  0.00  0.00    +0.146 HD
ATOM      7  H   UNL     1     -12.298  16.670  89.983  0.00  0.00    +0.146 HD
ATOM      8  O   UNL     1     -11.144  17.329  87.926  0.00  0.00    -0.253 OA
ENDROOT
TORSDOF 0
ENDMDL
MODEL 3
REMARK VINA RESULT:      -3.2      1.061      1.757
REMARK  Name = URE
REMARK  0 active torsions:
REMARK  status: ('A' for Active; 'I' for Inactive)
REMARK                            x       y       z     vdW  Elec       q    Type
REMARK                         _______ _______ _______ _____ _____    ______ ____
ROOT
ATOM      1  C   UNL     1      15.611  15.824  64.724  0.00  0.00    +0.294 C 
ATOM      2  N   UNL     1      16.016  16.740  63.824  0.00  0.00    -0.314 N 
ATOM      3  H   UNL     1      15.978  16.537  62.876  0.00  0.00    +0.146 HD
ATOM      4  H   UNL     1      16.345  17.602  64.122  0.00  0.00    +0.146 HD
ATOM      5  N   UNL     1      15.154  14.626  64.310  0.00  0.00    -0.314 N 
ATOM      6  H   UNL     1      15.113  14.425  63.362  0.00  0.00    +0.146 HD
ATOM      7  H   UNL     1      14.862  13.967  64.959  0.00  0.00    +0.146 HD
ATOM      8  O   UNL     1      15.658  16.077  65.912  0.00  0.00    -0.253 OA
ENDROOT
TORSDOF 0
ENDMDL
MODEL 4
REMARK VINA RESULT:      -2.7     18.336     18.355
REMARK  Name = URE
REMARK  0 active torsions:
REMARK  status: ('A' for Active; 'I' for Inactive)
REMARK                            x       y       z     vdW  Elec       q    Type
REMARK                         _______ _______ _______ _____ _____    ______ ____
ROOT
ATOM      1  C   UNL     1       8.841  28.517  76.764  0.00  0.00    +0.294 C 
ATOM      2  N   UNL     1       9.713  29.007  77.667  0.00  0.00    -0.314 N 
ATOM      3  H   UNL     1       9.390  29.366  78.507  0.00  0.00    +0.146 HD
ATOM      4  H   UNL     1      10.664  28.999  77.476  0.00  0.00    +0.146 HD
ATOM      5  N   UNL     1       7.520  28.527  77.028  0.00  0.00    -0.314 N 
ATOM      6  H   UNL     1       7.197  28.884  77.870  0.00  0.00    +0.146 HD
ATOM      7  H   UNL     1       6.892  28.174  76.378  0.00  0.00    +0.146 HD
ATOM      8  O   UNL     1       9.246  28.066  75.711  0.00  0.00    -0.253 OA
ENDROOT
TORSDOF 0
ENDMDL
MODEL 5
REMARK VINA RESULT:      -2.7     25.525     25.634
REMARK  Name = URE
REMARK  0 active torsions:
REMARK  status: ('A' for Active; 'I' for Inactive)
REMARK                            x       y       z     vdW  Elec       q    Type
REMARK                         _______ _______ _______ _____ _____    ______ ____
ROOT
ATOM      1  C   UNL     1      16.100  33.680  83.773  0.00  0.00    +0.294 C 
ATOM      2  N   UNL     1      15.570  34.914  83.887  0.00  0.00    -0.314 N 
ATOM      3  H   UNL     1      15.942  35.544  84.524  0.00  0.00    +0.146 HD
ATOM      4  H   UNL     1      14.818  35.172  83.331  0.00  0.00    +0.146 HD
ATOM      5  N   UNL     1      17.144  33.321  84.544  0.00  0.00    -0.314 N 
ATOM      6  H   UNL     1      17.518  33.952  85.179  0.00  0.00    +0.146 HD
ATOM      7  H   UNL     1      17.525  32.433  84.462  0.00  0.00    +0.146 HD
ATOM      8  O   UNL     1      15.635  32.891  82.975  0.00  0.00    -0.253 OA
ENDROOT
TORSDOF 0
ENDMDL
MODEL 6
REMARK VINA RESULT:      -2.6     28.639     28.766
REMARK  Name = URE
REMARK  0 active torsions:
REMARK  status: ('A' for Active; 'I' for Inactive)
REMARK                            x       y       z     vdW  Elec       q    Type
REMARK                         _______ _______ _______ _____ _____    ______ ____
ROOT
ATOM      1  C   UNL     1      10.490  42.277  75.942  0.00  0.00    +0.294 C 
ATOM      2  N   UNL     1      10.782  41.928  77.210  0.00  0.00    -0.314 N 
ATOM      3  H   UNL     1      11.134  42.590  77.826  0.00  0.00    +0.146 HD
ATOM      4  H   UNL     1      10.640  41.016  77.508  0.00  0.00    +0.146 HD
ATOM      5  N   UNL     1      10.687  43.544  75.529  0.00  0.00    -0.314 N 
ATOM      6  H   UNL     1      11.036  44.206  76.145  0.00  0.00    +0.146 HD
ATOM      7  H   UNL     1      10.477  43.794  74.615  0.00  0.00    +0.146 HD
ATOM      8  O   UNL     1      10.049  41.448  75.171  0.00  0.00    -0.253 OA
ENDROOT
TORSDOF 0
ENDMDL
MODEL 7
REMARK VINA RESULT:      -2.6      6.481      6.970
REMARK  Name = URE
REMARK  0 active torsions:
REMARK  status: ('A' for Active; 'I' for Inactive)
REMARK                            x       y       z     vdW  Elec       q    Type
REMARK                         _______ _______ _______ _____ _____    ______ ____
ROOT
ATOM      1  C   UNL     1      14.155  22.171  62.647  0.00  0.00    +0.294 C 
ATOM      2  N   UNL     1      13.353  22.985  63.361  0.00  0.00    -0.314 N 
ATOM      3  H   UNL     1      13.056  22.719  64.245  0.00  0.00    +0.146 HD
ATOM      4  H   UNL     1      13.073  23.837  62.991  0.00  0.00    +0.146 HD
ATOM      5  N   UNL     1      14.544  20.988  63.159  0.00  0.00    -0.314 N 
ATOM      6  H   UNL     1      14.249  20.723  64.044  0.00  0.00    +0.146 HD
ATOM      7  H   UNL     1      15.121  20.402  62.644  0.00  0.00    +0.146 HD
ATOM      8  O   UNL     1      14.526  22.505  61.539  0.00  0.00    -0.253 OA
ENDROOT
TORSDOF 0
ENDMDL
MODEL 8
REMARK VINA RESULT:      -2.6     25.492     25.578
REMARK  Name = URE
REMARK  0 active torsions:
REMARK  status: ('A' for Active; 'I' for Inactive)
REMARK                            x       y       z     vdW  Elec       q    Type
REMARK                         _______ _______ _______ _____ _____    ______ ____
ROOT
ATOM      1  C   UNL     1      16.238  33.758  83.783  0.00  0.00    +0.294 C 
ATOM      2  N   UNL     1      17.239  33.339  84.581  0.00  0.00    -0.314 N 
ATOM      3  H   UNL     1      17.554  32.423  84.523  0.00  0.00    +0.146 HD
ATOM      4  H   UNL     1      17.645  33.953  85.213  0.00  0.00    +0.146 HD
ATOM      5  N   UNL     1      15.674  32.906  82.905  0.00  0.00    -0.314 N 
ATOM      6  H   UNL     1      15.991  31.991  82.845  0.00  0.00    +0.146 HD
ATOM      7  H   UNL     1      14.953  33.208  82.330  0.00  0.00    +0.146 HD
ATOM      8  O   UNL     1      15.843  34.905  83.855  0.00  0.00    -0.253 OA
ENDROOT
TORSDOF 0
ENDMDL
MODEL 9
REMARK VINA RESULT:      -2.6     29.860     29.985
REMARK  Name = URE
REMARK  0 active torsions:
REMARK  status: ('A' for Active; 'I' for Inactive)
REMARK                            x       y       z     vdW  Elec       q    Type
REMARK                         _______ _______ _______ _____ _____    ______ ____
ROOT
ATOM      1  C   UNL     1       1.035  40.608  74.597  0.00  0.00    +0.294 C 
ATOM      2  N   UNL     1       1.520  39.441  75.065  0.00  0.00    -0.314 N 
ATOM      3  H   UNL     1       2.474  39.266  75.034  0.00  0.00    +0.146 HD
ATOM      4  H   UNL     1       0.917  38.777  75.432  0.00  0.00    +0.146 HD
ATOM      5  N   UNL     1       1.872  41.531  74.087  0.00  0.00    -0.314 N 
ATOM      6  H   UNL     1       2.826  41.357  74.059  0.00  0.00    +0.146 HD
ATOM      7  H   UNL     1       1.522  42.371  73.750  0.00  0.00    +0.146 HD
ATOM      8  O   UNL     1      -0.160  40.827  74.635  0.00  0.00    -0.253 OA
ENDROOT
TORSDOF 0
ENDMDL
