MODEL 1
REMARK VINA RESULT:      -2.0      0.000      0.000
REMARK  Name = 2F2
REMARK  2 active torsions:
REMARK  status: ('A' for Active; 'I' for Inactive)
REMARK    1  A    between atoms: C_1  and  O_2
REMARK    2  A    between atoms: O_2  and  C_3
REMARK                            x       y       z     vdW  Elec       q    Type
REMARK                         _______ _______ _______ _____ _____    ______ ____
ROOT
ATOM      1  C   UNL     1      21.793  23.629  64.273  0.00  0.00    +0.193 C 
ATOM      2  O   UNL     1      23.054  24.055  64.794  0.00  0.00    -0.386 OA
ATOM      3  C   UNL     1      23.661  23.119  65.688  0.00  0.00    +0.193 C 
ENDROOT
TORSDOF 0
ENDMDL
MODEL 2
REMARK VINA RESULT:      -2.0      1.976      2.473
REMARK  Name = 2F2
REMARK  2 active torsions:
REMARK  status: ('A' for Active; 'I' for Inactive)
REMARK    1  A    between atoms: C_1  and  O_2
REMARK    2  A    between atoms: O_2  and  C_3
REMARK                            x       y       z     vdW  Elec       q    Type
REMARK                         _______ _______ _______ _____ _____    ______ ____
ROOT
ATOM      1  C   UNL     1      21.772  21.674  65.916  0.00  0.00    +0.193 C 
ATOM      2  O   UNL     1      21.957  21.912  64.519  0.00  0.00    -0.386 OA
ATOM      3  C   UNL     1      21.784  23.278  64.133  0.00  0.00    +0.193 C 
ENDROOT
TORSDOF 0
ENDMDL
MODEL 3
REMARK VINA RESULT:      -1.9     13.369     13.406
REMARK  Name = 2F2
REMARK  2 active torsions:
REMARK  status: ('A' for Active; 'I' for Inactive)
REMARK    1  A    between atoms: C_1  and  O_2
REMARK    2  A    between atoms: O_2  and  C_3
REMARK                            x       y       z     vdW  Elec       q    Type
REMARK                         _______ _______ _______ _____ _____    ______ ____
ROOT
ATOM      1  C   UNL     1      15.017  12.561  67.276  0.00  0.00    +0.193 C 
ATOM      2  O   UNL     1      15.123  13.610  68.241  0.00  0.00    -0.386 OA
ATOM      3  C   UNL     1      15.626  13.186  69.510  0.00  0.00    +0.193 C 
ENDROOT
TORSDOF 0
ENDMDL
MODEL 4
REMARK VINA RESULT:      -1.9     14.916     15.322
REMARK  Name = 2F2
REMARK  2 active torsions:
REMARK  status: ('A' for Active; 'I' for Inactive)
REMARK    1  A    between atoms: C_1  and  O_2
REMARK    2  A    between atoms: O_2  and  C_3
REMARK                            x       y       z     vdW  Elec       q    Type
REMARK                         _______ _______ _______ _____ _____    ______ ____
ROOT
ATOM      1  C   UNL     1      21.129  25.528  80.896  0.00  0.00    +0.193 C 
ATOM      2  O   UNL     1      20.415  26.273  79.907  0.00  0.00    -0.386 OA
ATOM      3  C   UNL     1      20.456  25.695  78.600  0.00  0.00    +0.193 C 
ENDROOT
TORSDOF 0
ENDMDL
MODEL 5
REMARK VINA RESULT:      -1.8     27.277     27.287
REMARK  Name = 2F2
REMARK  2 active torsions:
REMARK  status: ('A' for Active; 'I' for Inactive)
REMARK    1  A    between atoms: C_1  and  O_2
REMARK    2  A    between atoms: O_2  and  C_3
REMARK                            x       y       z     vdW  Elec       q    Type
REMARK                         _______ _______ _______ _____ _____    ______ ____
ROOT
ATOM      1  C   UNL     1      -2.745  25.618  55.679  0.00  0.00    +0.193 C 
ATOM      2  O   UNL     1      -2.520  24.341  55.078  0.00  0.00    -0.386 OA
ATOM      3  C   UNL     1      -2.965  23.238  55.871  0.00  0.00    +0.193 C 
ENDROOT
TORSDOF 0
ENDMDL
MODEL 6
REMARK VINA RESULT:      -1.8     13.308     13.437
REMARK  Name = 2F2
REMARK  2 active torsions:
REMARK  status: ('A' for Active; 'I' for Inactive)
REMARK    1  A    between atoms: C_1  and  O_2
REMARK    2  A    between atoms: O_2  and  C_3
REMARK                            x       y       z     vdW  Elec       q    Type
REMARK                         _______ _______ _______ _____ _____    ______ ____
ROOT
ATOM      1  C   UNL     1      15.957  12.875  68.867  0.00  0.00    +0.193 C 
ATOM      2  O   UNL     1      14.975  13.514  68.049  0.00  0.00    -0.386 OA
ATOM      3  C   UNL     1      14.803  12.909  66.765  0.00  0.00    +0.193 C 
ENDROOT
TORSDOF 0
ENDMDL
MODEL 7
REMARK VINA RESULT:      -1.8     24.500     24.691
REMARK  Name = 2F2
REMARK  2 active torsions:
REMARK  status: ('A' for Active; 'I' for Inactive)
REMARK    1  A    between atoms: C_1  and  O_2
REMARK    2  A    between atoms: O_2  and  C_3
REMARK                            x       y       z     vdW  Elec       q    Type
REMARK                         _______ _______ _______ _____ _____    ______ ____
ROOT
ATOM      1  C   UNL     1       8.739  29.329  45.548  0.00  0.00    +0.193 C 
ATOM      2  O   UNL     1       9.613  28.240  45.243  0.00  0.00    -0.386 OA
ATOM      3  C   UNL     1       9.279  27.544  44.041  0.00  0.00    +0.193 C 
ENDROOT
TORSDOF 0
ENDMDL
MODEL 8
REMARK VINA RESULT:      -1.8     29.008     29.051
REMARK  Name = 2F2
REMARK  2 active torsions:
REMARK  status: ('A' for Active; 'I' for Inactive)
REMARK    1  A    between atoms: C_1  and  O_2
REMARK    2  A    between atoms: O_2  and  C_3
REMARK                            x       y       z     vdW  Elec       q    Type
REMARK                         _______ _______ _______ _____ _____    ______ ____
ROOT
ATOM      1  C   UNL     1       2.026  24.241  44.237  0.00  0.00    +0.193 C 
ATOM      2  O   UNL     1       2.325  23.124  45.077  0.00  0.00    -0.386 OA
ATOM      3  C   UNL     1       1.216  22.251  45.303  0.00  0.00    +0.193 C 
ENDROOT
TORSDOF 0
ENDMDL
MODEL 9
REMARK VINA RESULT:      -1.8     24.477     24.686
REMARK  Name = 2F2
REMARK  2 active torsions:
REMARK  status: ('A' for Active; 'I' for Inactive)
REMARK    1  A    between atoms: C_1  and  O_2
REMARK    2  A    between atoms: O_2  and  C_3
REMARK                            x       y       z     vdW  Elec       q    Type
REMARK                         _______ _______ _______ _____ _____    ______ ____
ROOT
ATOM      1  C   UNL     1       9.315  27.455  43.971  0.00  0.00    +0.193 C 
ATOM      2  O   UNL     1       9.685  28.154  45.162  0.00  0.00    -0.386 OA
ATOM      3  C   UNL     1       8.780  29.198  45.529  0.00  0.00    +0.193 C 
ENDROOT
TORSDOF 0
ENDMDL
