MODEL 1
REMARK VINA RESULT:      -2.4      0.000      0.000
REMARK  Name = ACE
REMARK  1 active torsions:
REMARK  status: ('A' for Active; 'I' for Inactive)
REMARK    1  A    between atoms: C_1  and  C_3
REMARK                            x       y       z     vdW  Elec       q    Type
REMARK                         _______ _______ _______ _____ _____    ______ ____
ROOT
ATOM      1  C   UNL     1      22.763  33.608  60.374  0.00  0.00    +0.220 C 
ATOM      2  C   UNL     1      23.605  34.859  60.354  0.00  0.00    +0.082 C 
ATOM      3  O   UNL     1      22.892  32.809  61.269  0.00  0.00    -0.301 OA
ENDROOT
TORSDOF 0
ENDMDL
MODEL 2
REMARK VINA RESULT:      -2.3     22.190     22.470
REMARK  Name = ACE
REMARK  1 active torsions:
REMARK  status: ('A' for Active; 'I' for Inactive)
REMARK    1  A    between atoms: C_1  and  C_3
REMARK                            x       y       z     vdW  Elec       q    Type
REMARK                         _______ _______ _______ _____ _____    ______ ____
ROOT
ATOM      1  C   UNL     1       8.962  29.758  77.200  0.00  0.00    +0.220 C 
ATOM      2  C   UNL     1       7.941  29.765  78.310  0.00  0.00    +0.082 C 
ATOM      3  O   UNL     1      10.118  30.008  77.442  0.00  0.00    -0.301 OA
ENDROOT
TORSDOF 0
ENDMDL
MODEL 3
REMARK VINA RESULT:      -2.2     19.618     19.696
REMARK  Name = ACE
REMARK  1 active torsions:
REMARK  status: ('A' for Active; 'I' for Inactive)
REMARK    1  A    between atoms: C_1  and  C_3
REMARK                            x       y       z     vdW  Elec       q    Type
REMARK                         _______ _______ _______ _____ _____    ______ ____
ROOT
ATOM      1  C   UNL     1      20.345  25.972  78.878  0.00  0.00    +0.220 C 
ATOM      2  C   UNL     1      21.315  24.983  78.285  0.00  0.00    +0.082 C 
ATOM      3  O   UNL     1      19.687  26.680  78.154  0.00  0.00    -0.301 OA
ENDROOT
TORSDOF 0
ENDMDL
MODEL 4
REMARK VINA RESULT:      -2.2     10.943     11.419
REMARK  Name = ACE
REMARK  1 active torsions:
REMARK  status: ('A' for Active; 'I' for Inactive)
REMARK    1  A    between atoms: C_1  and  C_3
REMARK                            x       y       z     vdW  Elec       q    Type
REMARK                         _______ _______ _______ _____ _____    ______ ____
ROOT
ATOM      1  C   UNL     1      21.700  23.448  64.303  0.00  0.00    +0.220 C 
ATOM      2  C   UNL     1      22.190  22.207  65.006  0.00  0.00    +0.082 C 
ATOM      3  O   UNL     1      22.054  23.680  63.172  0.00  0.00    -0.301 OA
ENDROOT
TORSDOF 0
ENDMDL
MODEL 5
REMARK VINA RESULT:      -2.2      7.527      7.691
REMARK  Name = ACE
REMARK  1 active torsions:
REMARK  status: ('A' for Active; 'I' for Inactive)
REMARK    1  A    between atoms: C_1  and  C_3
REMARK                            x       y       z     vdW  Elec       q    Type
REMARK                         _______ _______ _______ _____ _____    ______ ____
ROOT
ATOM      1  C   UNL     1      22.032  38.336  66.176  0.00  0.00    +0.220 C 
ATOM      2  C   UNL     1      21.994  39.780  65.748  0.00  0.00    +0.082 C 
ATOM      3  O   UNL     1      22.147  38.055  67.344  0.00  0.00    -0.301 OA
ENDROOT
TORSDOF 0
ENDMDL
MODEL 6
REMARK VINA RESULT:      -2.1     22.172     22.434
REMARK  Name = ACE
REMARK  1 active torsions:
REMARK  status: ('A' for Active; 'I' for Inactive)
REMARK    1  A    between atoms: C_1  and  C_3
REMARK                            x       y       z     vdW  Elec       q    Type
REMARK                         _______ _______ _______ _____ _____    ______ ____
ROOT
ATOM      1  C   UNL     1      22.260  20.401  42.692  0.00  0.00    +0.220 C 
ATOM      2  C   UNL     1      21.340  21.194  43.585  0.00  0.00    +0.082 C 
ATOM      3  O   UNL     1      21.937  20.161  41.554  0.00  0.00    -0.301 OA
ENDROOT
TORSDOF 0
ENDMDL
MODEL 7
REMARK VINA RESULT:      -2.1     13.488     13.921
REMARK  Name = ACE
REMARK  1 active torsions:
REMARK  status: ('A' for Active; 'I' for Inactive)
REMARK    1  A    between atoms: C_1  and  C_3
REMARK                            x       y       z     vdW  Elec       q    Type
REMARK                         _______ _______ _______ _____ _____    ______ ____
ROOT
ATOM      1  C   UNL     1      11.758  25.582  57.853  0.00  0.00    +0.220 C 
ATOM      2  C   UNL     1      12.776  26.271  58.726  0.00  0.00    +0.082 C 
ATOM      3  O   UNL     1      11.540  25.996  56.740  0.00  0.00    -0.301 OA
ENDROOT
TORSDOF 0
ENDMDL
MODEL 8
REMARK VINA RESULT:      -2.1     27.336     27.584
REMARK  Name = ACE
REMARK  1 active torsions:
REMARK  status: ('A' for Active; 'I' for Inactive)
REMARK    1  A    between atoms: C_1  and  C_3
REMARK                            x       y       z     vdW  Elec       q    Type
REMARK                         _______ _______ _______ _____ _____    ______ ____
ROOT
ATOM      1  C   UNL     1      -2.568  25.904  55.346  0.00  0.00    +0.220 C 
ATOM      2  C   UNL     1      -3.188  24.987  56.369  0.00  0.00    +0.082 C 
ATOM      3  O   UNL     1      -2.069  25.443  54.348  0.00  0.00    -0.301 OA
ENDROOT
TORSDOF 0
ENDMDL
MODEL 9
REMARK VINA RESULT:      -2.1     23.449     23.545
REMARK  Name = ACE
REMARK  1 active torsions:
REMARK  status: ('A' for Active; 'I' for Inactive)
REMARK    1  A    between atoms: C_1  and  C_3
REMARK                            x       y       z     vdW  Elec       q    Type
REMARK                         _______ _______ _______ _____ _____    ______ ____
ROOT
ATOM      1  C   UNL     1      15.091  12.601  67.471  0.00  0.00    +0.220 C 
ATOM      2  C   UNL     1      16.344  11.796  67.242  0.00  0.00    +0.082 C 
ATOM      3  O   UNL     1      15.106  13.539  68.231  0.00  0.00    -0.301 OA
ENDROOT
TORSDOF 0
ENDMDL
