MODEL 1
REMARK VINA RESULT:      -3.0      0.000      0.000
REMARK  Name = ACM
REMARK  1 active torsions:
REMARK  status: ('A' for Active; 'I' for Inactive)
REMARK    1  A    between atoms: C_1  and  C_4
REMARK                            x       y       z     vdW  Elec       q    Type
REMARK                         _______ _______ _______ _____ _____    ______ ____
ROOT
ATOM      1  C   UNL     1      22.337  23.199  64.574  0.00  0.00    +0.207 C 
ATOM      2  C   UNL     1      22.028  22.085  65.538  0.00  0.00    +0.109 C 
ATOM      3  N   UNL     1      21.816  23.181  63.332  0.00  0.00    -0.330 N 
ATOM      4  H   UNL     1      21.241  22.449  63.059  0.00  0.00    +0.145 HD
ATOM      5  H   UNL     1      22.015  23.899  62.711  0.00  0.00    +0.145 HD
ATOM      6  O   UNL     1      23.056  24.114  64.916  0.00  0.00    -0.276 OA
ENDROOT
TORSDOF 0
ENDMDL
MODEL 2
REMARK VINA RESULT:      -2.9     14.896     15.204
REMARK  Name = ACM
REMARK  1 active torsions:
REMARK  status: ('A' for Active; 'I' for Inactive)
REMARK    1  A    between atoms: C_1  and  C_4
REMARK                            x       y       z     vdW  Elec       q    Type
REMARK                         _______ _______ _______ _____ _____    ______ ____
ROOT
ATOM      1  C   UNL     1      21.841  38.162  65.678  0.00  0.00    +0.207 C 
ATOM      2  C   UNL     1      21.671  39.610  65.302  0.00  0.00    +0.109 C 
ATOM      3  N   UNL     1      21.634  37.198  64.760  0.00  0.00    -0.330 N 
ATOM      4  H   UNL     1      21.375  37.437  63.857  0.00  0.00    +0.145 HD
ATOM      5  H   UNL     1      21.744  36.265  65.003  0.00  0.00    +0.145 HD
ATOM      6  O   UNL     1      22.166  37.864  66.808  0.00  0.00    -0.276 OA
ENDROOT
TORSDOF 0
ENDMDL
MODEL 3
REMARK VINA RESULT:      -2.9     25.595     25.645
REMARK  Name = ACM
REMARK  1 active torsions:
REMARK  status: ('A' for Active; 'I' for Inactive)
REMARK    1  A    between atoms: C_1  and  C_4
REMARK                            x       y       z     vdW  Elec       q    Type
REMARK                         _______ _______ _______ _____ _____    ______ ____
ROOT
ATOM      1  C   UNL     1       8.863  13.197  45.161  0.00  0.00    +0.207 C 
ATOM      2  C   UNL     1      10.010  13.946  45.785  0.00  0.00    +0.109 C 
ATOM      3  N   UNL     1       8.741  11.869  45.350  0.00  0.00    -0.330 N 
ATOM      4  H   UNL     1       9.394  11.395  45.889  0.00  0.00    +0.145 HD
ATOM      5  H   UNL     1       8.002  11.387  44.948  0.00  0.00    +0.145 HD
ATOM      6  O   UNL     1       8.047  13.791  44.488  0.00  0.00    -0.276 OA
ENDROOT
TORSDOF 0
ENDMDL
MODEL 4
REMARK VINA RESULT:      -2.9     24.201     24.448
REMARK  Name = ACM
REMARK  1 active torsions:
REMARK  status: ('A' for Active; 'I' for Inactive)
REMARK    1  A    between atoms: C_1  and  C_4
REMARK                            x       y       z     vdW  Elec       q    Type
REMARK                         _______ _______ _______ _____ _____    ______ ____
ROOT
ATOM      1  C   UNL     1       8.788  29.237  45.335  0.00  0.00    +0.207 C 
ATOM      2  C   UNL     1       8.534  29.721  43.932  0.00  0.00    +0.109 C 
ATOM      3  N   UNL     1       7.988  29.638  46.342  0.00  0.00    -0.330 N 
ATOM      4  H   UNL     1       7.248  30.239  46.163  0.00  0.00    +0.145 HD
ATOM      5  H   UNL     1       8.152  29.327  47.246  0.00  0.00    +0.145 HD
ATOM      6  O   UNL     1       9.714  28.486  45.558  0.00  0.00    -0.276 OA
ENDROOT
TORSDOF 0
ENDMDL
MODEL 5
REMARK VINA RESULT:      -2.8     12.930     13.088
REMARK  Name = ACM
REMARK  1 active torsions:
REMARK  status: ('A' for Active; 'I' for Inactive)
REMARK    1  A    between atoms: C_1  and  C_4
REMARK                            x       y       z     vdW  Elec       q    Type
REMARK                         _______ _______ _______ _____ _____    ______ ____
ROOT
ATOM      1  C   UNL     1      12.227  26.270  56.926  0.00  0.00    +0.207 C 
ATOM      2  C   UNL     1      13.049  26.583  58.148  0.00  0.00    +0.109 C 
ATOM      3  N   UNL     1      12.669  26.632  55.705  0.00  0.00    -0.330 N 
ATOM      4  H   UNL     1      13.516  27.095  55.615  0.00  0.00    +0.145 HD
ATOM      5  H   UNL     1      12.139  26.431  54.918  0.00  0.00    +0.145 HD
ATOM      6  O   UNL     1      11.167  25.692  57.040  0.00  0.00    -0.276 OA
ENDROOT
TORSDOF 0
ENDMDL
MODEL 6
REMARK VINA RESULT:      -2.8     14.344     14.379
REMARK  Name = ACM
REMARK  1 active torsions:
REMARK  status: ('A' for Active; 'I' for Inactive)
REMARK    1  A    between atoms: C_1  and  C_4
REMARK                            x       y       z     vdW  Elec       q    Type
REMARK                         _______ _______ _______ _____ _____    ______ ____
ROOT
ATOM      1  C   UNL     1      19.418  37.044  63.228  0.00  0.00    +0.207 C 
ATOM      2  C   UNL     1      18.326  36.500  62.345  0.00  0.00    +0.109 C 
ATOM      3  N   UNL     1      19.141  38.008  64.127  0.00  0.00    -0.330 N 
ATOM      4  H   UNL     1      18.238  38.352  64.206  0.00  0.00    +0.145 HD
ATOM      5  H   UNL     1      19.845  38.358  64.696  0.00  0.00    +0.145 HD
ATOM      6  O   UNL     1      20.547  36.613  63.129  0.00  0.00    -0.276 OA
ENDROOT
TORSDOF 0
ENDMDL
MODEL 7
REMARK VINA RESULT:      -2.6     15.098     15.408
REMARK  Name = ACM
REMARK  1 active torsions:
REMARK  status: ('A' for Active; 'I' for Inactive)
REMARK    1  A    between atoms: C_1  and  C_4
REMARK                            x       y       z     vdW  Elec       q    Type
REMARK                         _______ _______ _______ _____ _____    ______ ____
ROOT
ATOM      1  C   UNL     1      20.164  38.244  64.141  0.00  0.00    +0.207 C 
ATOM      2  C   UNL     1      20.942  39.489  64.478  0.00  0.00    +0.109 C 
ATOM      3  N   UNL     1      20.805  37.068  63.993  0.00  0.00    -0.330 N 
ATOM      4  H   UNL     1      21.767  37.024  64.103  0.00  0.00    +0.145 HD
ATOM      5  H   UNL     1      20.304  36.267  63.776  0.00  0.00    +0.145 HD
ATOM      6  O   UNL     1      18.960  38.301  64.004  0.00  0.00    -0.276 OA
ENDROOT
TORSDOF 0
ENDMDL
MODEL 8
REMARK VINA RESULT:      -2.6     26.919     26.925
REMARK  Name = ACM
REMARK  1 active torsions:
REMARK  status: ('A' for Active; 'I' for Inactive)
REMARK    1  A    between atoms: C_1  and  C_4
REMARK                            x       y       z     vdW  Elec       q    Type
REMARK                         _______ _______ _______ _____ _____    ______ ____
ROOT
ATOM      1  C   UNL     1      -3.281  24.485  56.358  0.00  0.00    +0.207 C 
ATOM      2  C   UNL     1      -3.679  24.051  57.744  0.00  0.00    +0.109 C 
ATOM      3  N   UNL     1      -2.963  23.563  55.428  0.00  0.00    -0.330 N 
ATOM      4  H   UNL     1      -2.992  22.620  55.652  0.00  0.00    +0.145 HD
ATOM      5  H   UNL     1      -2.707  23.843  54.535  0.00  0.00    +0.145 HD
ATOM      6  O   UNL     1      -3.245  25.665  56.080  0.00  0.00    -0.276 OA
ENDROOT
TORSDOF 0
ENDMDL
MODEL 9
REMARK VINA RESULT:      -2.5     31.677     31.689
REMARK  Name = ACM
REMARK  1 active torsions:
REMARK  status: ('A' for Active; 'I' for Inactive)
REMARK    1  A    between atoms: C_1  and  C_4
REMARK                            x       y       z     vdW  Elec       q    Type
REMARK                         _______ _______ _______ _____ _____    ______ ____
ROOT
ATOM      1  C   UNL     1      -6.946  29.311  54.202  0.00  0.00    +0.207 C 
ATOM      2  C   UNL     1      -6.942  30.487  55.143  0.00  0.00    +0.109 C 
ATOM      3  N   UNL     1      -6.233  29.358  53.061  0.00  0.00    -0.330 N 
ATOM      4  H   UNL     1      -5.716  30.149  52.845  0.00  0.00    +0.145 HD
ATOM      5  H   UNL     1      -6.236  28.600  52.455  0.00  0.00    +0.145 HD
ATOM      6  O   UNL     1      -7.593  28.322  54.473  0.00  0.00    -0.276 OA
ENDROOT
TORSDOF 0
ENDMDL
