MODEL 1
REMARK VINA RESULT:      -2.8      0.000      0.000
REMARK  Name = ACN
REMARK  2 active torsions:
REMARK  status: ('A' for Active; 'I' for Inactive)
REMARK    1  A    between atoms: C_1  and  C_3
REMARK    2  A    between atoms: C_1  and  C_4
REMARK                            x       y       z     vdW  Elec       q    Type
REMARK                         _______ _______ _______ _____ _____    ______ ____
ROOT
ATOM      1  C   UNL     1      22.465  22.163  65.094  0.00  0.00    +0.127 C 
ATOM      2  C   UNL     1      23.586  22.890  65.792  0.00  0.00    +0.085 C 
ATOM      3  C   UNL     1      21.298  21.638  65.889  0.00  0.00    +0.085 C 
ATOM      4  O   UNL     1      22.506  21.998  63.898  0.00  0.00    -0.298 OA
ENDROOT
TORSDOF 0
ENDMDL
MODEL 2
REMARK VINA RESULT:      -2.8     13.091     13.386
REMARK  Name = ACN
REMARK  2 active torsions:
REMARK  status: ('A' for Active; 'I' for Inactive)
REMARK    1  A    between atoms: C_1  and  C_3
REMARK    2  A    between atoms: C_1  and  C_4
REMARK                            x       y       z     vdW  Elec       q    Type
REMARK                         _______ _______ _______ _____ _____    ______ ____
ROOT
ATOM      1  C   UNL     1      12.500  26.402  57.301  0.00  0.00    +0.127 C 
ATOM      2  C   UNL     1      13.479  27.203  56.484  0.00  0.00    +0.085 C 
ATOM      3  C   UNL     1      12.744  26.186  58.772  0.00  0.00    +0.085 C 
ATOM      4  O   UNL     1      11.521  25.927  56.776  0.00  0.00    -0.298 OA
ENDROOT
TORSDOF 0
ENDMDL
MODEL 3
REMARK VINA RESULT:      -2.8     13.168     13.525
REMARK  Name = ACN
REMARK  2 active torsions:
REMARK  status: ('A' for Active; 'I' for Inactive)
REMARK    1  A    between atoms: C_1  and  C_3
REMARK    2  A    between atoms: C_1  and  C_4
REMARK                            x       y       z     vdW  Elec       q    Type
REMARK                         _______ _______ _______ _____ _____    ______ ____
ROOT
ATOM      1  C   UNL     1      12.767  26.678  56.987  0.00  0.00    +0.127 C 
ATOM      2  C   UNL     1      12.506  26.081  58.346  0.00  0.00    +0.085 C 
ATOM      3  C   UNL     1      13.965  27.566  56.772  0.00  0.00    +0.085 C 
ATOM      4  O   UNL     1      12.013  26.448  56.072  0.00  0.00    -0.298 OA
ENDROOT
TORSDOF 0
ENDMDL
MODEL 4
REMARK VINA RESULT:      -2.7     14.911     15.201
REMARK  Name = ACN
REMARK  2 active torsions:
REMARK  status: ('A' for Active; 'I' for Inactive)
REMARK    1  A    between atoms: C_1  and  C_3
REMARK    2  A    between atoms: C_1  and  C_4
REMARK                            x       y       z     vdW  Elec       q    Type
REMARK                         _______ _______ _______ _____ _____    ______ ____
ROOT
ATOM      1  C   UNL     1      19.559  36.752  62.916  0.00  0.00    +0.127 C 
ATOM      2  C   UNL     1      18.410  35.937  62.382  0.00  0.00    +0.085 C 
ATOM      3  C   UNL     1      19.295  38.060  63.616  0.00  0.00    +0.085 C 
ATOM      4  O   UNL     1      20.693  36.359  62.779  0.00  0.00    -0.298 OA
ENDROOT
TORSDOF 0
ENDMDL
MODEL 5
REMARK VINA RESULT:      -2.7     17.145     17.611
REMARK  Name = ACN
REMARK  2 active torsions:
REMARK  status: ('A' for Active; 'I' for Inactive)
REMARK    1  A    between atoms: C_1  and  C_3
REMARK    2  A    between atoms: C_1  and  C_4
REMARK                            x       y       z     vdW  Elec       q    Type
REMARK                         _______ _______ _______ _____ _____    ______ ____
ROOT
ATOM      1  C   UNL     1      22.789  39.612  66.885  0.00  0.00    +0.127 C 
ATOM      2  C   UNL     1      22.816  40.958  66.209  0.00  0.00    +0.085 C 
ATOM      3  C   UNL     1      22.027  38.471  66.263  0.00  0.00    +0.085 C 
ATOM      4  O   UNL     1      23.374  39.450  67.930  0.00  0.00    -0.298 OA
ENDROOT
TORSDOF 0
ENDMDL
MODEL 6
REMARK VINA RESULT:      -2.6     11.544     11.951
REMARK  Name = ACN
REMARK  2 active torsions:
REMARK  status: ('A' for Active; 'I' for Inactive)
REMARK    1  A    between atoms: C_1  and  C_3
REMARK    2  A    between atoms: C_1  and  C_4
REMARK                            x       y       z     vdW  Elec       q    Type
REMARK                         _______ _______ _______ _____ _____    ______ ____
ROOT
ATOM      1  C   UNL     1      13.653  26.916  58.861  0.00  0.00    +0.127 C 
ATOM      2  C   UNL     1      12.481  26.015  58.568  0.00  0.00    +0.085 C 
ATOM      3  C   UNL     1      14.174  27.042  60.269  0.00  0.00    +0.085 C 
ATOM      4  O   UNL     1      14.172  27.541  57.967  0.00  0.00    -0.298 OA
ENDROOT
TORSDOF 0
ENDMDL
MODEL 7
REMARK VINA RESULT:      -2.6     22.724     23.142
REMARK  Name = ACN
REMARK  2 active torsions:
REMARK  status: ('A' for Active; 'I' for Inactive)
REMARK    1  A    between atoms: C_1  and  C_3
REMARK    2  A    between atoms: C_1  and  C_4
REMARK                            x       y       z     vdW  Elec       q    Type
REMARK                         _______ _______ _______ _____ _____    ______ ____
ROOT
ATOM      1  C   UNL     1      22.307  20.778  42.071  0.00  0.00    +0.127 C 
ATOM      2  C   UNL     1      21.892  20.204  43.400  0.00  0.00    +0.085 C 
ATOM      3  C   UNL     1      22.981  22.124  42.008  0.00  0.00    +0.085 C 
ATOM      4  O   UNL     1      22.095  20.161  41.054  0.00  0.00    -0.298 OA
ENDROOT
TORSDOF 0
ENDMDL
MODEL 8
REMARK VINA RESULT:      -2.5     27.469     27.624
REMARK  Name = ACN
REMARK  2 active torsions:
REMARK  status: ('A' for Active; 'I' for Inactive)
REMARK    1  A    between atoms: C_1  and  C_3
REMARK    2  A    between atoms: C_1  and  C_4
REMARK                            x       y       z     vdW  Elec       q    Type
REMARK                         _______ _______ _______ _____ _____    ______ ____
ROOT
ATOM      1  C   UNL     1      -3.773  24.243  56.799  0.00  0.00    +0.127 C 
ATOM      2  C   UNL     1      -3.902  24.092  58.293  0.00  0.00    +0.085 C 
ATOM      3  C   UNL     1      -3.052  23.192  55.995  0.00  0.00    +0.085 C 
ATOM      4  O   UNL     1      -4.243  25.209  56.247  0.00  0.00    -0.298 OA
ENDROOT
TORSDOF 0
ENDMDL
MODEL 9
REMARK VINA RESULT:      -2.5     14.426     14.616
REMARK  Name = ACN
REMARK  2 active torsions:
REMARK  status: ('A' for Active; 'I' for Inactive)
REMARK    1  A    between atoms: C_1  and  C_3
REMARK    2  A    between atoms: C_1  and  C_4
REMARK                            x       y       z     vdW  Elec       q    Type
REMARK                         _______ _______ _______ _____ _____    ______ ____
ROOT
ATOM      1  C   UNL     1      20.721  25.612  79.162  0.00  0.00    +0.127 C 
ATOM      2  C   UNL     1      21.320  24.653  78.166  0.00  0.00    +0.085 C 
ATOM      3  C   UNL     1      21.048  25.480  80.627  0.00  0.00    +0.085 C 
ATOM      4  O   UNL     1      19.975  26.485  78.787  0.00  0.00    -0.298 OA
ENDROOT
TORSDOF 0
ENDMDL
