MODEL 1
REMARK VINA RESULT:      -4.5      0.000      0.000
REMARK  Name = BNZ
REMARK  0 active torsions:
REMARK  status: ('A' for Active; 'I' for Inactive)
REMARK                            x       y       z     vdW  Elec       q    Type
REMARK                         _______ _______ _______ _____ _____    ______ ____
ROOT
ATOM      1  C   UNL     1      14.217  27.414  58.093  0.00  0.00    +0.000 A 
ATOM      2  C   UNL     1      13.483  26.693  59.016  0.00  0.00    +0.000 A 
ATOM      3  C   UNL     1      12.368  25.983  58.610  0.00  0.00    +0.000 A 
ATOM      4  C   UNL     1      11.987  25.996  57.282  0.00  0.00    +0.000 A 
ATOM      5  C   UNL     1      12.720  26.718  56.359  0.00  0.00    +0.000 A 
ATOM      6  C   UNL     1      13.836  27.427  56.765  0.00  0.00    +0.000 A 
ENDROOT
TORSDOF 0
ENDMDL
MODEL 2
REMARK VINA RESULT:      -4.5      0.084      2.764
REMARK  Name = BNZ
REMARK  0 active torsions:
REMARK  status: ('A' for Active; 'I' for Inactive)
REMARK                            x       y       z     vdW  Elec       q    Type
REMARK                         _______ _______ _______ _____ _____    ______ ____
ROOT
ATOM      1  C   UNL     1      12.002  26.004  57.293  0.00  0.00    +0.000 A 
ATOM      2  C   UNL     1      12.687  26.720  56.331  0.00  0.00    +0.000 A 
ATOM      3  C   UNL     1      13.805  27.454  56.681  0.00  0.00    +0.000 A 
ATOM      4  C   UNL     1      14.235  27.474  57.994  0.00  0.00    +0.000 A 
ATOM      5  C   UNL     1      13.549  26.758  58.957  0.00  0.00    +0.000 A 
ATOM      6  C   UNL     1      12.432  26.022  58.606  0.00  0.00    +0.000 A 
ENDROOT
TORSDOF 0
ENDMDL
MODEL 3
REMARK VINA RESULT:      -3.8     16.413     17.730
REMARK  Name = BNZ
REMARK  0 active torsions:
REMARK  status: ('A' for Active; 'I' for Inactive)
REMARK                            x       y       z     vdW  Elec       q    Type
REMARK                         _______ _______ _______ _____ _____    ______ ____
ROOT
ATOM      1  C   UNL     1      21.063  40.040  64.361  0.00  0.00    +0.000 A 
ATOM      2  C   UNL     1      21.122  38.798  64.962  0.00  0.00    +0.000 A 
ATOM      3  C   UNL     1      21.926  38.603  66.071  0.00  0.00    +0.000 A 
ATOM      4  C   UNL     1      22.672  39.652  66.574  0.00  0.00    +0.000 A 
ATOM      5  C   UNL     1      22.614  40.894  65.972  0.00  0.00    +0.000 A 
ATOM      6  C   UNL     1      21.808  41.089  64.865  0.00  0.00    +0.000 A 
ENDROOT
TORSDOF 0
ENDMDL
MODEL 4
REMARK VINA RESULT:      -3.8     16.709     18.106
REMARK  Name = BNZ
REMARK  0 active torsions:
REMARK  status: ('A' for Active; 'I' for Inactive)
REMARK                            x       y       z     vdW  Elec       q    Type
REMARK                         _______ _______ _______ _____ _____    ______ ____
ROOT
ATOM      1  C   UNL     1      21.294  38.971  65.158  0.00  0.00    +0.000 A 
ATOM      2  C   UNL     1      21.244  40.209  64.547  0.00  0.00    +0.000 A 
ATOM      3  C   UNL     1      22.011  41.252  65.035  0.00  0.00    +0.000 A 
ATOM      4  C   UNL     1      22.824  41.055  66.136  0.00  0.00    +0.000 A 
ATOM      5  C   UNL     1      22.872  39.817  66.747  0.00  0.00    +0.000 A 
ATOM      6  C   UNL     1      22.107  38.774  66.258  0.00  0.00    +0.000 A 
ENDROOT
TORSDOF 0
ENDMDL
MODEL 5
REMARK VINA RESULT:      -3.7     16.746     17.979
REMARK  Name = BNZ
REMARK  0 active torsions:
REMARK  status: ('A' for Active; 'I' for Inactive)
REMARK                            x       y       z     vdW  Elec       q    Type
REMARK                         _______ _______ _______ _____ _____    ______ ____
ROOT
ATOM      1  C   UNL     1      22.312  41.481  65.384  0.00  0.00    +0.000 A 
ATOM      2  C   UNL     1      22.909  40.765  66.403  0.00  0.00    +0.000 A 
ATOM      3  C   UNL     1      22.600  39.429  66.583  0.00  0.00    +0.000 A 
ATOM      4  C   UNL     1      21.691  38.812  65.744  0.00  0.00    +0.000 A 
ATOM      5  C   UNL     1      21.093  39.528  64.725  0.00  0.00    +0.000 A 
ATOM      6  C   UNL     1      21.403  40.863  64.544  0.00  0.00    +0.000 A 
ENDROOT
TORSDOF 0
ENDMDL
MODEL 6
REMARK VINA RESULT:      -3.6      1.803      2.752
REMARK  Name = BNZ
REMARK  0 active torsions:
REMARK  status: ('A' for Active; 'I' for Inactive)
REMARK                            x       y       z     vdW  Elec       q    Type
REMARK                         _______ _______ _______ _____ _____    ______ ____
ROOT
ATOM      1  C   UNL     1      13.472  25.419  58.696  0.00  0.00    +0.000 A 
ATOM      2  C   UNL     1      12.395  26.101  58.162  0.00  0.00    +0.000 A 
ATOM      3  C   UNL     1      11.282  25.404  57.728  0.00  0.00    +0.000 A 
ATOM      4  C   UNL     1      11.249  24.026  57.825  0.00  0.00    +0.000 A 
ATOM      5  C   UNL     1      12.326  23.344  58.359  0.00  0.00    +0.000 A 
ATOM      6  C   UNL     1      13.438  24.041  58.795  0.00  0.00    +0.000 A 
ENDROOT
TORSDOF 0
ENDMDL
MODEL 7
REMARK VINA RESULT:      -3.6     17.547     18.397
REMARK  Name = BNZ
REMARK  0 active torsions:
REMARK  status: ('A' for Active; 'I' for Inactive)
REMARK                            x       y       z     vdW  Elec       q    Type
REMARK                         _______ _______ _______ _____ _____    ______ ____
ROOT
ATOM      1  C   UNL     1      22.827  11.980  66.139  0.00  0.00    +0.000 A 
ATOM      2  C   UNL     1      22.229  12.229  64.918  0.00  0.00    +0.000 A 
ATOM      3  C   UNL     1      21.505  13.391  64.727  0.00  0.00    +0.000 A 
ATOM      4  C   UNL     1      21.375  14.302  65.758  0.00  0.00    +0.000 A 
ATOM      5  C   UNL     1      21.972  14.053  66.979  0.00  0.00    +0.000 A 
ATOM      6  C   UNL     1      22.698  12.892  67.170  0.00  0.00    +0.000 A 
ENDROOT
TORSDOF 0
ENDMDL
MODEL 8
REMARK VINA RESULT:      -3.6     17.597     18.351
REMARK  Name = BNZ
REMARK  0 active torsions:
REMARK  status: ('A' for Active; 'I' for Inactive)
REMARK                            x       y       z     vdW  Elec       q    Type
REMARK                         _______ _______ _______ _____ _____    ______ ____
ROOT
ATOM      1  C   UNL     1      21.994  13.968  66.998  0.00  0.00    +0.000 A 
ATOM      2  C   UNL     1      22.803  12.856  67.130  0.00  0.00    +0.000 A 
ATOM      3  C   UNL     1      22.979  11.998  66.060  0.00  0.00    +0.000 A 
ATOM      4  C   UNL     1      22.341  12.250  64.860  0.00  0.00    +0.000 A 
ATOM      5  C   UNL     1      21.531  13.362  64.729  0.00  0.00    +0.000 A 
ATOM      6  C   UNL     1      21.357  14.221  65.798  0.00  0.00    +0.000 A 
ENDROOT
TORSDOF 0
ENDMDL
MODEL 9
REMARK VINA RESULT:      -3.5     11.609     12.936
REMARK  Name = BNZ
REMARK  0 active torsions:
REMARK  status: ('A' for Active; 'I' for Inactive)
REMARK                            x       y       z     vdW  Elec       q    Type
REMARK                         _______ _______ _______ _____ _____    ______ ____
ROOT
ATOM      1  C   UNL     1      18.234  35.988  62.288  0.00  0.00    +0.000 A 
ATOM      2  C   UNL     1      17.361  36.731  61.517  0.00  0.00    +0.000 A 
ATOM      3  C   UNL     1      17.551  38.094  61.375  0.00  0.00    +0.000 A 
ATOM      4  C   UNL     1      18.613  38.712  62.008  0.00  0.00    +0.000 A 
ATOM      5  C   UNL     1      19.485  37.969  62.780  0.00  0.00    +0.000 A 
ATOM      6  C   UNL     1      19.296  36.606  62.920  0.00  0.00    +0.000 A 
ENDROOT
TORSDOF 0
ENDMDL
