MODEL 1
REMARK VINA RESULT:      -2.3      0.000      0.000
REMARK  Name = CCN
REMARK  1 active torsions:
REMARK  status: ('A' for Active; 'I' for Inactive)
REMARK    1  A    between atoms: C_2  and  C_3
REMARK                            x       y       z     vdW  Elec       q    Type
REMARK                         _______ _______ _______ _____ _____    ______ ____
ROOT
ATOM      1  N   UNL     1      19.224  26.763  78.219  0.00  0.00    -0.197 NA
ATOM      2  C   UNL     1      20.052  26.038  78.503  0.00  0.00    +0.059 C 
ATOM      3  C   UNL     1      21.123  25.098  78.871  0.00  0.00    +0.138 C 
ENDROOT
TORSDOF 0
ENDMDL
MODEL 2
REMARK VINA RESULT:      -2.2     21.961     22.133
REMARK  Name = CCN
REMARK  1 active torsions:
REMARK  status: ('A' for Active; 'I' for Inactive)
REMARK    1  A    between atoms: C_2  and  C_3
REMARK                            x       y       z     vdW  Elec       q    Type
REMARK                         _______ _______ _______ _____ _____    ______ ____
ROOT
ATOM      1  N   UNL     1      16.825  28.272  57.180  0.00  0.00    -0.197 NA
ATOM      2  C   UNL     1      15.712  28.079  57.065  0.00  0.00    +0.059 C 
ATOM      3  C   UNL     1      14.269  27.829  56.916  0.00  0.00    +0.138 C 
ENDROOT
TORSDOF 0
ENDMDL
MODEL 3
REMARK VINA RESULT:      -2.1     17.685     18.003
REMARK  Name = CCN
REMARK  1 active torsions:
REMARK  status: ('A' for Active; 'I' for Inactive)
REMARK    1  A    between atoms: C_2  and  C_3
REMARK                            x       y       z     vdW  Elec       q    Type
REMARK                         _______ _______ _______ _____ _____    ______ ____
ROOT
ATOM      1  N   UNL     1      22.192  38.030  67.176  0.00  0.00    -0.197 NA
ATOM      2  C   UNL     1      22.015  38.781  66.342  0.00  0.00    +0.059 C 
ATOM      3  C   UNL     1      21.787  39.754  65.261  0.00  0.00    +0.138 C 
ENDROOT
TORSDOF 0
ENDMDL
MODEL 4
REMARK VINA RESULT:      -2.1     22.565     22.809
REMARK  Name = CCN
REMARK  1 active torsions:
REMARK  status: ('A' for Active; 'I' for Inactive)
REMARK    1  A    between atoms: C_2  and  C_3
REMARK                            x       y       z     vdW  Elec       q    Type
REMARK                         _______ _______ _______ _____ _____    ______ ____
ROOT
ATOM      1  N   UNL     1      12.402  26.610  55.895  0.00  0.00    -0.197 NA
ATOM      2  C   UNL     1      12.409  26.328  56.995  0.00  0.00    +0.059 C 
ATOM      3  C   UNL     1      12.418  25.963  58.421  0.00  0.00    +0.138 C 
ENDROOT
TORSDOF 0
ENDMDL
MODEL 5
REMARK VINA RESULT:      -2.1     18.948     19.133
REMARK  Name = CCN
REMARK  1 active torsions:
REMARK  status: ('A' for Active; 'I' for Inactive)
REMARK    1  A    between atoms: C_2  and  C_3
REMARK                            x       y       z     vdW  Elec       q    Type
REMARK                         _______ _______ _______ _____ _____    ______ ____
ROOT
ATOM      1  N   UNL     1      20.527  36.662  63.193  0.00  0.00    -0.197 NA
ATOM      2  C   UNL     1      19.463  36.597  62.801  0.00  0.00    +0.059 C 
ATOM      3  C   UNL     1      18.084  36.512  62.292  0.00  0.00    +0.138 C 
ENDROOT
TORSDOF 0
ENDMDL
MODEL 6
REMARK VINA RESULT:      -2.0     18.535     18.643
REMARK  Name = CCN
REMARK  1 active torsions:
REMARK  status: ('A' for Active; 'I' for Inactive)
REMARK    1  A    between atoms: C_2  and  C_3
REMARK                            x       y       z     vdW  Elec       q    Type
REMARK                         _______ _______ _______ _____ _____    ______ ____
ROOT
ATOM      1  N   UNL     1      11.223  18.052  65.268  0.00  0.00    -0.197 NA
ATOM      2  C   UNL     1      11.645  17.353  64.478  0.00  0.00    +0.059 C 
ATOM      3  C   UNL     1      12.190  16.448  63.453  0.00  0.00    +0.138 C 
ENDROOT
TORSDOF 0
ENDMDL
MODEL 7
REMARK VINA RESULT:      -2.0     36.637     36.700
REMARK  Name = CCN
REMARK  1 active torsions:
REMARK  status: ('A' for Active; 'I' for Inactive)
REMARK    1  A    between atoms: C_2  and  C_3
REMARK                            x       y       z     vdW  Elec       q    Type
REMARK                         _______ _______ _______ _____ _____    ______ ____
ROOT
ATOM      1  N   UNL     1      22.130  20.246  41.116  0.00  0.00    -0.197 NA
ATOM      2  C   UNL     1      22.163  20.572  42.204  0.00  0.00    +0.059 C 
ATOM      3  C   UNL     1      22.207  20.993  43.613  0.00  0.00    +0.138 C 
ENDROOT
TORSDOF 0
ENDMDL
MODEL 8
REMARK VINA RESULT:      -2.0     19.776     19.985
REMARK  Name = CCN
REMARK  1 active torsions:
REMARK  status: ('A' for Active; 'I' for Inactive)
REMARK    1  A    between atoms: C_2  and  C_3
REMARK                            x       y       z     vdW  Elec       q    Type
REMARK                         _______ _______ _______ _____ _____    ______ ____
ROOT
ATOM      1  N   UNL     1      22.932  32.753  60.907  0.00  0.00    -0.197 NA
ATOM      2  C   UNL     1      23.264  33.790  60.583  0.00  0.00    +0.059 C 
ATOM      3  C   UNL     1      23.693  35.134  60.163  0.00  0.00    +0.138 C 
ENDROOT
TORSDOF 0
ENDMDL
MODEL 9
REMARK VINA RESULT:      -2.0     37.577     37.592
REMARK  Name = CCN
REMARK  1 active torsions:
REMARK  status: ('A' for Active; 'I' for Inactive)
REMARK    1  A    between atoms: C_2  and  C_3
REMARK                            x       y       z     vdW  Elec       q    Type
REMARK                         _______ _______ _______ _____ _____    ______ ____
ROOT
ATOM      1  N   UNL     1      -6.907  17.910  53.725  0.00  0.00    -0.197 NA
ATOM      2  C   UNL     1      -7.654  17.943  54.579  0.00  0.00    +0.059 C 
ATOM      3  C   UNL     1      -8.623  17.986  55.687  0.00  0.00    +0.138 C 
ENDROOT
TORSDOF 0
ENDMDL
