MODEL 1
REMARK VINA RESULT:      -4.2      0.000      0.000
REMARK  Name = CHX
REMARK  0 active torsions:
REMARK  status: ('A' for Active; 'I' for Inactive)
REMARK                            x       y       z     vdW  Elec       q    Type
REMARK                         _______ _______ _______ _____ _____    ______ ____
ROOT
ATOM      1  C   UNL     1      12.656  25.657  58.604  0.00  0.00    -0.000 C 
ATOM      2  C   UNL     1      11.970  26.115  57.315  0.00  0.00    -0.000 C 
ATOM      3  C   UNL     1      13.030  26.511  56.287  0.00  0.00    -0.000 C 
ATOM      4  C   UNL     1      13.881  27.653  56.845  0.00  0.00    -0.000 C 
ATOM      5  C   UNL     1      14.566  27.196  58.134  0.00  0.00    -0.000 C 
ATOM      6  C   UNL     1      13.506  26.800  59.162  0.00  0.00    -0.000 C 
ENDROOT
TORSDOF 0
ENDMDL
MODEL 2
REMARK VINA RESULT:      -4.2      0.061      2.102
REMARK  Name = CHX
REMARK  0 active torsions:
REMARK  status: ('A' for Active; 'I' for Inactive)
REMARK                            x       y       z     vdW  Elec       q    Type
REMARK                         _______ _______ _______ _____ _____    ______ ____
ROOT
ATOM      1  C   UNL     1      11.940  26.099  57.299  0.00  0.00    -0.000 C 
ATOM      2  C   UNL     1      12.605  25.611  58.587  0.00  0.00    -0.000 C 
ATOM      3  C   UNL     1      13.450  26.738  59.182  0.00  0.00    -0.000 C 
ATOM      4  C   UNL     1      14.527  27.152  58.179  0.00  0.00    -0.000 C 
ATOM      5  C   UNL     1      13.863  27.640  56.891  0.00  0.00    -0.000 C 
ATOM      6  C   UNL     1      13.017  26.514  56.295  0.00  0.00    -0.000 C 
ENDROOT
TORSDOF 0
ENDMDL
MODEL 3
REMARK VINA RESULT:      -4.2      0.088      2.457
REMARK  Name = CHX
REMARK  0 active torsions:
REMARK  status: ('A' for Active; 'I' for Inactive)
REMARK                            x       y       z     vdW  Elec       q    Type
REMARK                         _______ _______ _______ _____ _____    ______ ____
ROOT
ATOM      1  C   UNL     1      14.558  27.173  58.243  0.00  0.00    -0.000 C 
ATOM      2  C   UNL     1      13.455  26.745  59.211  0.00  0.00    -0.000 C 
ATOM      3  C   UNL     1      12.626  25.628  58.576  0.00  0.00    -0.000 C 
ATOM      4  C   UNL     1      11.996  26.135  57.279  0.00  0.00    -0.000 C 
ATOM      5  C   UNL     1      13.099  26.564  56.310  0.00  0.00    -0.000 C 
ATOM      6  C   UNL     1      13.928  27.681  56.945  0.00  0.00    -0.000 C 
ENDROOT
TORSDOF 0
ENDMDL
MODEL 4
REMARK VINA RESULT:      -4.2      0.124      2.549
REMARK  Name = CHX
REMARK  0 active torsions:
REMARK  status: ('A' for Active; 'I' for Inactive)
REMARK                            x       y       z     vdW  Elec       q    Type
REMARK                         _______ _______ _______ _____ _____    ______ ____
ROOT
ATOM      1  C   UNL     1      13.084  26.537  56.320  0.00  0.00    -0.000 C 
ATOM      2  C   UNL     1      13.916  27.642  56.973  0.00  0.00    -0.000 C 
ATOM      3  C   UNL     1      14.518  27.122  58.279  0.00  0.00    -0.000 C 
ATOM      4  C   UNL     1      13.394  26.703  59.227  0.00  0.00    -0.000 C 
ATOM      5  C   UNL     1      12.562  25.598  58.575  0.00  0.00    -0.000 C 
ATOM      6  C   UNL     1      11.959  26.118  57.269  0.00  0.00    -0.000 C 
ENDROOT
TORSDOF 0
ENDMDL
MODEL 5
REMARK VINA RESULT:      -4.2      0.114      2.102
REMARK  Name = CHX
REMARK  0 active torsions:
REMARK  status: ('A' for Active; 'I' for Inactive)
REMARK                            x       y       z     vdW  Elec       q    Type
REMARK                         _______ _______ _______ _____ _____    ______ ____
ROOT
ATOM      1  C   UNL     1      13.927  27.683  56.974  0.00  0.00    -0.000 C 
ATOM      2  C   UNL     1      13.100  26.578  56.316  0.00  0.00    -0.000 C 
ATOM      3  C   UNL     1      11.985  26.141  57.267  0.00  0.00    -0.000 C 
ATOM      4  C   UNL     1      12.600  25.613  58.564  0.00  0.00    -0.000 C 
ATOM      5  C   UNL     1      13.426  26.718  59.223  0.00  0.00    -0.000 C 
ATOM      6  C   UNL     1      14.541  27.156  58.272  0.00  0.00    -0.000 C 
ENDROOT
TORSDOF 0
ENDMDL
MODEL 6
REMARK VINA RESULT:      -3.5     11.771     12.978
REMARK  Name = CHX
REMARK  0 active torsions:
REMARK  status: ('A' for Active; 'I' for Inactive)
REMARK                            x       y       z     vdW  Elec       q    Type
REMARK                         _______ _______ _______ _____ _____    ______ ____
ROOT
ATOM      1  C   UNL     1      18.374  35.844  62.486  0.00  0.00    -0.000 C 
ATOM      2  C   UNL     1      19.645  36.628  62.818  0.00  0.00    -0.000 C 
ATOM      3  C   UNL     1      19.271  37.914  63.556  0.00  0.00    -0.000 C 
ATOM      4  C   UNL     1      18.363  38.767  62.668  0.00  0.00    -0.000 C 
ATOM      5  C   UNL     1      17.093  37.983  62.336  0.00  0.00    -0.000 C 
ATOM      6  C   UNL     1      17.466  36.697  61.598  0.00  0.00    -0.000 C 
ENDROOT
TORSDOF 0
ENDMDL
MODEL 7
REMARK VINA RESULT:      -3.5     11.780     12.874
REMARK  Name = CHX
REMARK  0 active torsions:
REMARK  status: ('A' for Active; 'I' for Inactive)
REMARK                            x       y       z     vdW  Elec       q    Type
REMARK                         _______ _______ _______ _____ _____    ______ ____
ROOT
ATOM      1  C   UNL     1      19.650  36.639  62.827  0.00  0.00    -0.000 C 
ATOM      2  C   UNL     1      18.381  35.852  62.493  0.00  0.00    -0.000 C 
ATOM      3  C   UNL     1      17.479  36.699  61.594  0.00  0.00    -0.000 C 
ATOM      4  C   UNL     1      17.102  37.991  62.321  0.00  0.00    -0.000 C 
ATOM      5  C   UNL     1      18.371  38.777  62.655  0.00  0.00    -0.000 C 
ATOM      6  C   UNL     1      19.273  37.930  63.554  0.00  0.00    -0.000 C 
ENDROOT
TORSDOF 0
ENDMDL
MODEL 8
REMARK VINA RESULT:      -3.5     11.781     12.909
REMARK  Name = CHX
REMARK  0 active torsions:
REMARK  status: ('A' for Active; 'I' for Inactive)
REMARK                            x       y       z     vdW  Elec       q    Type
REMARK                         _______ _______ _______ _____ _____    ______ ____
ROOT
ATOM      1  C   UNL     1      17.477  36.703  61.599  0.00  0.00    -0.000 C 
ATOM      2  C   UNL     1      17.111  37.999  62.324  0.00  0.00    -0.000 C 
ATOM      3  C   UNL     1      18.386  38.776  62.652  0.00  0.00    -0.000 C 
ATOM      4  C   UNL     1      19.285  37.925  63.551  0.00  0.00    -0.000 C 
ATOM      5  C   UNL     1      19.651  36.629  62.826  0.00  0.00    -0.000 C 
ATOM      6  C   UNL     1      18.375  35.852  62.497  0.00  0.00    -0.000 C 
ENDROOT
TORSDOF 0
ENDMDL
MODEL 9
REMARK VINA RESULT:      -3.5     11.779     12.951
REMARK  Name = CHX
REMARK  0 active torsions:
REMARK  status: ('A' for Active; 'I' for Inactive)
REMARK                            x       y       z     vdW  Elec       q    Type
REMARK                         _______ _______ _______ _____ _____    ______ ____
ROOT
ATOM      1  C   UNL     1      19.219  37.968  63.515  0.00  0.00    -0.000 C 
ATOM      2  C   UNL     1      18.360  38.814  62.574  0.00  0.00    -0.000 C 
ATOM      3  C   UNL     1      17.081  38.051  62.228  0.00  0.00    -0.000 C 
ATOM      4  C   UNL     1      17.444  36.733  61.541  0.00  0.00    -0.000 C 
ATOM      5  C   UNL     1      18.303  35.887  62.482  0.00  0.00    -0.000 C 
ATOM      6  C   UNL     1      19.582  36.650  62.828  0.00  0.00    -0.000 C 
ENDROOT
TORSDOF 0
ENDMDL
