MODEL 1
REMARK VINA RESULT:      -2.8      0.000      0.000
REMARK  Name = DMF
REMARK  2 active torsions:
REMARK  status: ('A' for Active; 'I' for Inactive)
REMARK    1  A    between atoms: C_1  and  N_5
REMARK    2  A    between atoms: C_2  and  N_5
REMARK                            x       y       z     vdW  Elec       q    Type
REMARK                         _______ _______ _______ _____ _____    ______ ____
ROOT
ATOM      1  C   UNL     1      14.024  16.762  63.902  0.00  0.00    +0.131 C 
ATOM      2  N   UNL     1      13.116  17.629  64.658  0.00  0.00    -0.310 N 
ATOM      3  C   UNL     1      11.788  17.409  64.618  0.00  0.00    +0.327 C 
ATOM      4  O   UNL     1      11.036  18.127  65.243  0.00  0.00    -0.279 OA
ATOM      5  C   UNL     1      13.653  18.734  65.455  0.00  0.00    +0.131 C 
ENDROOT
TORSDOF 0
ENDMDL
MODEL 2
REMARK VINA RESULT:      -2.7     11.823     12.022
REMARK  Name = DMF
REMARK  2 active torsions:
REMARK  status: ('A' for Active; 'I' for Inactive)
REMARK    1  A    between atoms: C_1  and  N_5
REMARK    2  A    between atoms: C_2  and  N_5
REMARK                            x       y       z     vdW  Elec       q    Type
REMARK                         _______ _______ _______ _____ _____    ______ ____
ROOT
ATOM      1  C   UNL     1      14.772  27.831  57.029  0.00  0.00    +0.131 C 
ATOM      2  N   UNL     1      13.544  27.075  57.289  0.00  0.00    -0.310 N 
ATOM      3  C   UNL     1      12.723  26.757  56.270  0.00  0.00    +0.327 C 
ATOM      4  O   UNL     1      11.705  26.131  56.484  0.00  0.00    -0.279 OA
ATOM      5  C   UNL     1      13.209  26.667  58.655  0.00  0.00    +0.131 C 
ENDROOT
TORSDOF 0
ENDMDL
MODEL 3
REMARK VINA RESULT:      -2.7     17.918     18.313
REMARK  Name = DMF
REMARK  2 active torsions:
REMARK  status: ('A' for Active; 'I' for Inactive)
REMARK    1  A    between atoms: C_1  and  N_5
REMARK    2  A    between atoms: C_2  and  N_5
REMARK                            x       y       z     vdW  Elec       q    Type
REMARK                         _______ _______ _______ _____ _____    ______ ____
ROOT
ATOM      1  C   UNL     1      21.720  23.662  78.954  0.00  0.00    +0.131 C 
ATOM      2  N   UNL     1      21.069  24.889  79.422  0.00  0.00    -0.310 N 
ATOM      3  C   UNL     1      20.360  25.644  78.561  0.00  0.00    +0.327 C 
ATOM      4  O   UNL     1      19.822  26.660  78.947  0.00  0.00    -0.279 OA
ATOM      5  C   UNL     1      21.190  25.293  80.824  0.00  0.00    +0.131 C 
ENDROOT
TORSDOF 0
ENDMDL
MODEL 4
REMARK VINA RESULT:      -2.7     20.375     20.870
REMARK  Name = DMF
REMARK  2 active torsions:
REMARK  status: ('A' for Active; 'I' for Inactive)
REMARK    1  A    between atoms: C_1  and  N_5
REMARK    2  A    between atoms: C_2  and  N_5
REMARK                            x       y       z     vdW  Elec       q    Type
REMARK                         _______ _______ _______ _____ _____    ______ ____
ROOT
ATOM      1  C   UNL     1      17.408  37.199  62.032  0.00  0.00    +0.131 C 
ATOM      2  N   UNL     1      18.805  37.457  62.389  0.00  0.00    -0.310 N 
ATOM      3  C   UNL     1      19.554  36.475  62.926  0.00  0.00    +0.327 C 
ATOM      4  O   UNL     1      20.711  36.688  63.222  0.00  0.00    -0.279 OA
ATOM      5  C   UNL     1      19.386  38.782  62.163  0.00  0.00    +0.131 C 
ENDROOT
TORSDOF 0
ENDMDL
MODEL 5
REMARK VINA RESULT:      -2.6     23.453     24.010
REMARK  Name = DMF
REMARK  2 active torsions:
REMARK  status: ('A' for Active; 'I' for Inactive)
REMARK    1  A    between atoms: C_1  and  N_5
REMARK    2  A    between atoms: C_2  and  N_5
REMARK                            x       y       z     vdW  Elec       q    Type
REMARK                         _______ _______ _______ _____ _____    ______ ____
ROOT
ATOM      1  C   UNL     1      23.522  21.608  44.309  0.00  0.00    +0.131 C 
ATOM      2  N   UNL     1      22.669  20.715  43.521  0.00  0.00    -0.310 N 
ATOM      3  C   UNL     1      22.592  20.865  42.184  0.00  0.00    +0.327 C 
ATOM      4  O   UNL     1      21.885  20.126  41.531  0.00  0.00    -0.279 OA
ATOM      5  C   UNL     1      21.901  19.660  44.185  0.00  0.00    +0.131 C 
ENDROOT
TORSDOF 0
ENDMDL
MODEL 6
REMARK VINA RESULT:      -2.6     11.536     11.868
REMARK  Name = DMF
REMARK  2 active torsions:
REMARK  status: ('A' for Active; 'I' for Inactive)
REMARK    1  A    between atoms: C_1  and  N_5
REMARK    2  A    between atoms: C_2  and  N_5
REMARK                            x       y       z     vdW  Elec       q    Type
REMARK                         _______ _______ _______ _____ _____    ______ ____
ROOT
ATOM      1  C   UNL     1      14.310  26.932  59.703  0.00  0.00    +0.131 C 
ATOM      2  N   UNL     1      13.663  26.989  58.390  0.00  0.00    -0.310 N 
ATOM      3  C   UNL     1      14.166  27.785  57.426  0.00  0.00    +0.327 C 
ATOM      4  O   UNL     1      13.631  27.833  56.339  0.00  0.00    -0.279 OA
ATOM      5  C   UNL     1      12.470  26.182  58.125  0.00  0.00    +0.131 C 
ENDROOT
TORSDOF 0
ENDMDL
MODEL 7
REMARK VINA RESULT:      -2.5      7.292      7.676
REMARK  Name = DMF
REMARK  2 active torsions:
REMARK  status: ('A' for Active; 'I' for Inactive)
REMARK    1  A    between atoms: C_1  and  N_5
REMARK    2  A    between atoms: C_2  and  N_5
REMARK                            x       y       z     vdW  Elec       q    Type
REMARK                         _______ _______ _______ _____ _____    ______ ____
ROOT
ATOM      1  C   UNL     1      17.567  11.872  69.906  0.00  0.00    +0.131 C 
ATOM      2  N   UNL     1      16.689  12.236  68.792  0.00  0.00    -0.310 N 
ATOM      3  C   UNL     1      15.731  13.167  68.967  0.00  0.00    +0.327 C 
ATOM      4  O   UNL     1      15.003  13.469  68.045  0.00  0.00    -0.279 OA
ATOM      5  C   UNL     1      16.852  11.589  67.489  0.00  0.00    +0.131 C 
ENDROOT
TORSDOF 0
ENDMDL
MODEL 8
REMARK VINA RESULT:      -2.5     22.974     23.769
REMARK  Name = DMF
REMARK  2 active torsions:
REMARK  status: ('A' for Active; 'I' for Inactive)
REMARK    1  A    between atoms: C_1  and  N_5
REMARK    2  A    between atoms: C_2  and  N_5
REMARK                            x       y       z     vdW  Elec       q    Type
REMARK                         _______ _______ _______ _____ _____    ______ ____
ROOT
ATOM      1  C   UNL     1      -9.578  16.799  55.524  0.00  0.00    +0.131 C 
ATOM      2  N   UNL     1      -8.751  17.157  54.369  0.00  0.00    -0.310 N 
ATOM      3  C   UNL     1      -7.552  17.741  54.556  0.00  0.00    +0.327 C 
ATOM      4  O   UNL     1      -6.866  18.037  53.600  0.00  0.00    -0.279 OA
ATOM      5  C   UNL     1      -9.228  16.880  53.013  0.00  0.00    +0.131 C 
ENDROOT
TORSDOF 0
ENDMDL
MODEL 9
REMARK VINA RESULT:      -2.5     12.820     13.145
REMARK  Name = DMF
REMARK  2 active torsions:
REMARK  status: ('A' for Active; 'I' for Inactive)
REMARK    1  A    between atoms: C_1  and  N_5
REMARK    2  A    between atoms: C_2  and  N_5
REMARK                            x       y       z     vdW  Elec       q    Type
REMARK                         _______ _______ _______ _____ _____    ______ ____
ROOT
ATOM      1  C   UNL     1      20.016  22.625  56.125  0.00  0.00    +0.131 C 
ATOM      2  N   UNL     1      20.854  23.729  56.600  0.00  0.00    -0.310 N 
ATOM      3  C   UNL     1      20.426  24.511  57.610  0.00  0.00    +0.327 C 
ATOM      4  O   UNL     1      21.120  25.425  58.004  0.00  0.00    -0.279 OA
ATOM      5  C   UNL     1      22.154  23.982  55.977  0.00  0.00    +0.131 C 
ENDROOT
TORSDOF 0
ENDMDL
