REMARK  Name = EOH
REMARK  2 active torsions:
REMARK  status: ('A' for Active; 'I' for Inactive)
REMARK    1  A    between atoms: C_1  and  C_2
REMARK    2  A    between atoms: C_1  and  O_3
REMARK                            x       y       z     vdW  Elec       q    Type
REMARK                         _______ _______ _______ _____ _____    ______ ____
ROOT
ATOM      1  C   UNL     1       0.007  -0.569   0.000  0.00  0.00    +0.152 C 
ATOM      2  C   UNL     1      -1.285   0.250   0.000  0.00  0.00    +0.034 C 
ENDROOT
BRANCH   1   3
ATOM      3  O   UNL     1       1.130   0.315   0.000  0.00  0.00    -0.395 OA
ATOM      4  H   UNL     1       1.986  -0.137   0.000  0.00  0.00    +0.209 HD
ENDBRANCH   1   3
TORSDOF 1
