MODEL 1
REMARK VINA RESULT:      -5.4      0.000      0.000
REMARK  Name = HBX
REMARK  1 active torsions:
REMARK  status: ('A' for Active; 'I' for Inactive)
REMARK    1  A    between atoms: C_1  and  C_3
REMARK                            x       y       z     vdW  Elec       q    Type
REMARK                         _______ _______ _______ _____ _____    ______ ____
ROOT
ATOM      1  C   UNL     1      13.666  26.857  58.935  0.00  0.00    +0.014 A 
ATOM      2  C   UNL     1      14.267  27.540  57.874  0.00  0.00    +0.011 A 
ATOM      3  C   UNL     1      13.744  27.429  56.602  0.00  0.00    +0.001 A 
ATOM      4  C   UNL     1      12.620  26.653  56.379  0.00  0.00    +0.000 A 
ATOM      5  C   UNL     1      12.015  25.979  57.425  0.00  0.00    +0.001 A 
ATOM      6  C   UNL     1      12.530  26.075  58.701  0.00  0.00    +0.011 A 
ENDROOT
BRANCH   1   7
ATOM      7  C   UNL     1      14.222  26.965  60.294  0.00  0.00    +0.258 C 
ATOM      8  O   UNL     1      14.879  26.055  60.753  0.00  0.00    -0.296 OA
ENDBRANCH   1   7
TORSDOF 1
ENDMDL
MODEL 2
REMARK VINA RESULT:      -5.1      2.155      3.200
REMARK  Name = HBX
REMARK  1 active torsions:
REMARK  status: ('A' for Active; 'I' for Inactive)
REMARK    1  A    between atoms: C_1  and  C_3
REMARK                            x       y       z     vdW  Elec       q    Type
REMARK                         _______ _______ _______ _____ _____    ______ ____
ROOT
ATOM      1  C   UNL     1      12.374  25.989  57.790  0.00  0.00    +0.014 A 
ATOM      2  C   UNL     1      13.111  26.326  58.929  0.00  0.00    +0.011 A 
ATOM      3  C   UNL     1      14.145  27.234  58.833  0.00  0.00    +0.001 A 
ATOM      4  C   UNL     1      14.446  27.818  57.614  0.00  0.00    +0.000 A 
ATOM      5  C   UNL     1      13.717  27.494  56.484  0.00  0.00    +0.001 A 
ATOM      6  C   UNL     1      12.685  26.583  56.563  0.00  0.00    +0.011 A 
ENDROOT
BRANCH   1   7
ATOM      7  C   UNL     1      11.273  25.016  57.883  0.00  0.00    +0.258 C 
ATOM      8  O   UNL     1      10.179  25.297  57.444  0.00  0.00    -0.296 OA
ENDBRANCH   1   7
TORSDOF 1
ENDMDL
MODEL 3
REMARK VINA RESULT:      -5.1      1.767      2.721
REMARK  Name = HBX
REMARK  1 active torsions:
REMARK  status: ('A' for Active; 'I' for Inactive)
REMARK    1  A    between atoms: C_1  and  C_3
REMARK                            x       y       z     vdW  Elec       q    Type
REMARK                         _______ _______ _______ _____ _____    ______ ____
ROOT
ATOM      1  C   UNL     1      14.003  27.466  57.295  0.00  0.00    +0.014 A 
ATOM      2  C   UNL     1      14.037  27.187  58.664  0.00  0.00    +0.011 A 
ATOM      3  C   UNL     1      13.086  26.355  59.219  0.00  0.00    +0.001 A 
ATOM      4  C   UNL     1      12.108  25.789  58.420  0.00  0.00    +0.000 A 
ATOM      5  C   UNL     1      12.071  26.055  57.063  0.00  0.00    +0.001 A 
ATOM      6  C   UNL     1      13.011  26.890  56.495  0.00  0.00    +0.011 A 
ENDROOT
BRANCH   1   7
ATOM      7  C   UNL     1      15.010  28.357  56.697  0.00  0.00    +0.258 C 
ATOM      8  O   UNL     1      16.162  28.308  57.073  0.00  0.00    -0.296 OA
ENDBRANCH   1   7
TORSDOF 1
ENDMDL
MODEL 4
REMARK VINA RESULT:      -4.8     15.977     17.218
REMARK  Name = HBX
REMARK  1 active torsions:
REMARK  status: ('A' for Active; 'I' for Inactive)
REMARK    1  A    between atoms: C_1  and  C_3
REMARK                            x       y       z     vdW  Elec       q    Type
REMARK                         _______ _______ _______ _____ _____    ______ ____
ROOT
ATOM      1  C   UNL     1      21.150  40.145  64.379  0.00  0.00    +0.014 A 
ATOM      2  C   UNL     1      21.152  38.872  64.957  0.00  0.00    +0.011 A 
ATOM      3  C   UNL     1      21.928  38.627  66.071  0.00  0.00    +0.001 A 
ATOM      4  C   UNL     1      22.695  39.640  66.621  0.00  0.00    +0.000 A 
ATOM      5  C   UNL     1      22.693  40.903  66.058  0.00  0.00    +0.001 A 
ATOM      6  C   UNL     1      21.927  41.163  64.941  0.00  0.00    +0.011 A 
ENDROOT
BRANCH   1   7
ATOM      7  C   UNL     1      20.329  40.414  63.187  0.00  0.00    +0.258 C 
ATOM      8  O   UNL     1      20.741  40.112  62.087  0.00  0.00    -0.296 OA
ENDBRANCH   1   7
TORSDOF 1
ENDMDL
MODEL 5
REMARK VINA RESULT:      -4.7     16.350     17.520
REMARK  Name = HBX
REMARK  1 active torsions:
REMARK  status: ('A' for Active; 'I' for Inactive)
REMARK    1  A    between atoms: C_1  and  C_3
REMARK                            x       y       z     vdW  Elec       q    Type
REMARK                         _______ _______ _______ _____ _____    ______ ____
ROOT
ATOM      1  C   UNL     1      22.471  40.268  66.006  0.00  0.00    +0.014 A 
ATOM      2  C   UNL     1      22.252  41.440  65.277  0.00  0.00    +0.011 A 
ATOM      3  C   UNL     1      21.355  41.439  64.228  0.00  0.00    +0.001 A 
ATOM      4  C   UNL     1      20.666  40.282  63.906  0.00  0.00    +0.000 A 
ATOM      5  C   UNL     1      20.873  39.120  64.627  0.00  0.00    +0.001 A 
ATOM      6  C   UNL     1      21.770  39.104  65.674  0.00  0.00    +0.011 A 
ENDROOT
BRANCH   1   7
ATOM      7  C   UNL     1      23.430  40.260  67.122  0.00  0.00    +0.258 C 
ATOM      8  O   UNL     1      23.362  39.398  67.973  0.00  0.00    -0.296 OA
ENDBRANCH   1   7
TORSDOF 1
ENDMDL
MODEL 6
REMARK VINA RESULT:      -4.6      1.869      2.250
REMARK  Name = HBX
REMARK  1 active torsions:
REMARK  status: ('A' for Active; 'I' for Inactive)
REMARK    1  A    between atoms: C_1  and  C_3
REMARK                            x       y       z     vdW  Elec       q    Type
REMARK                         _______ _______ _______ _____ _____    ______ ____
ROOT
ATOM      1  C   UNL     1      14.059  24.664  59.081  0.00  0.00    +0.014 A 
ATOM      2  C   UNL     1      13.748  26.014  58.893  0.00  0.00    +0.011 A 
ATOM      3  C   UNL     1      12.563  26.366  58.282  0.00  0.00    +0.001 A 
ATOM      4  C   UNL     1      11.677  25.387  57.865  0.00  0.00    +0.000 A 
ATOM      5  C   UNL     1      11.975  24.049  58.053  0.00  0.00    +0.001 A 
ATOM      6  C   UNL     1      13.159  23.680  58.657  0.00  0.00    +0.011 A 
ENDROOT
BRANCH   1   7
ATOM      7  C   UNL     1      15.324  24.279  59.726  0.00  0.00    +0.258 C 
ATOM      8  O   UNL     1      15.492  24.496  60.907  0.00  0.00    -0.296 OA
ENDBRANCH   1   7
TORSDOF 1
ENDMDL
MODEL 7
REMARK VINA RESULT:      -4.5     15.038     16.454
REMARK  Name = HBX
REMARK  1 active torsions:
REMARK  status: ('A' for Active; 'I' for Inactive)
REMARK    1  A    between atoms: C_1  and  C_3
REMARK                            x       y       z     vdW  Elec       q    Type
REMARK                         _______ _______ _______ _____ _____    ______ ____
ROOT
ATOM      1  C   UNL     1      20.923  38.882  64.545  0.00  0.00    +0.014 A 
ATOM      2  C   UNL     1      21.683  38.571  65.675  0.00  0.00    +0.011 A 
ATOM      3  C   UNL     1      22.423  39.556  66.297  0.00  0.00    +0.001 A 
ATOM      4  C   UNL     1      22.403  40.852  65.809  0.00  0.00    +0.000 A 
ATOM      5  C   UNL     1      21.648  41.168  64.694  0.00  0.00    +0.001 A 
ATOM      6  C   UNL     1      20.908  40.193  64.058  0.00  0.00    +0.011 A 
ENDROOT
BRANCH   1   7
ATOM      7  C   UNL     1      20.136  37.835  63.872  0.00  0.00    +0.258 C 
ATOM      8  O   UNL     1      20.663  36.790  63.557  0.00  0.00    -0.296 OA
ENDBRANCH   1   7
TORSDOF 1
ENDMDL
MODEL 8
REMARK VINA RESULT:      -4.4     12.311     13.304
REMARK  Name = HBX
REMARK  1 active torsions:
REMARK  status: ('A' for Active; 'I' for Inactive)
REMARK    1  A    between atoms: C_1  and  C_3
REMARK                            x       y       z     vdW  Elec       q    Type
REMARK                         _______ _______ _______ _____ _____    ______ ____
ROOT
ATOM      1  C   UNL     1      19.059  38.586  62.020  0.00  0.00    +0.014 A 
ATOM      2  C   UNL     1      17.842  38.306  61.392  0.00  0.00    +0.011 A 
ATOM      3  C   UNL     1      17.295  37.043  61.488  0.00  0.00    +0.001 A 
ATOM      4  C   UNL     1      17.943  36.058  62.213  0.00  0.00    +0.000 A 
ATOM      5  C   UNL     1      19.145  36.329  62.842  0.00  0.00    +0.001 A 
ATOM      6  C   UNL     1      19.707  37.585  62.751  0.00  0.00    +0.011 A 
ENDROOT
BRANCH   1   7
ATOM      7  C   UNL     1      19.653  39.929  61.918  0.00  0.00    +0.258 C 
ATOM      8  O   UNL     1      20.735  40.073  61.390  0.00  0.00    -0.296 OA
ENDBRANCH   1   7
TORSDOF 1
ENDMDL
MODEL 9
REMARK VINA RESULT:      -4.1     16.689     17.696
REMARK  Name = HBX
REMARK  1 active torsions:
REMARK  status: ('A' for Active; 'I' for Inactive)
REMARK    1  A    between atoms: C_1  and  C_3
REMARK                            x       y       z     vdW  Elec       q    Type
REMARK                         _______ _______ _______ _____ _____    ______ ____
ROOT
ATOM      1  C   UNL     1      21.628  20.386  43.766  0.00  0.00    +0.014 A 
ATOM      2  C   UNL     1      21.771  19.177  44.453  0.00  0.00    +0.011 A 
ATOM      3  C   UNL     1      21.090  18.976  45.636  0.00  0.00    +0.001 A 
ATOM      4  C   UNL     1      20.259  19.964  46.136  0.00  0.00    +0.000 A 
ATOM      5  C   UNL     1      20.108  21.161  45.459  0.00  0.00    +0.001 A 
ATOM      6  C   UNL     1      20.787  21.379  44.278  0.00  0.00    +0.011 A 
ENDROOT
BRANCH   1   7
ATOM      7  C   UNL     1      22.356  20.611  42.507  0.00  0.00    +0.258 C 
ATOM      8  O   UNL     1      21.943  20.128  41.474  0.00  0.00    -0.296 OA
ENDBRANCH   1   7
TORSDOF 1
ENDMDL
