MODEL 1
REMARK VINA RESULT:      -2.9      0.000      0.000
REMARK  Name = IPA
REMARK  3 active torsions:
REMARK  status: ('A' for Active; 'I' for Inactive)
REMARK    1  A    between atoms: C_1  and  C_2
REMARK    2  A    between atoms: C_2  and  C_3
REMARK    3  A    between atoms: C_2  and  O_4
REMARK                            x       y       z     vdW  Elec       q    Type
REMARK                         _______ _______ _______ _____ _____    ______ ____
ROOT
ATOM      1  C   UNL     1      21.500  21.588  65.841  0.00  0.00    +0.037 C 
ATOM      2  C   UNL     1      22.398  22.512  65.015  0.00  0.00    +0.108 C 
ATOM      3  C   UNL     1      23.690  22.790  65.786  0.00  0.00    +0.037 C 
ENDROOT
BRANCH   2   4
ATOM      4  O   UNL     1      22.711  21.884  63.771  0.00  0.00    -0.392 OA
ATOM      5  H   UNL     1      23.324  21.141  63.848  0.00  0.00    +0.210 HD
ENDBRANCH   2   4
TORSDOF 1
ENDMDL
MODEL 2
REMARK VINA RESULT:      -2.8     13.589     13.779
REMARK  Name = IPA
REMARK  3 active torsions:
REMARK  status: ('A' for Active; 'I' for Inactive)
REMARK    1  A    between atoms: C_1  and  C_2
REMARK    2  A    between atoms: C_2  and  C_3
REMARK    3  A    between atoms: C_2  and  O_4
REMARK                            x       y       z     vdW  Elec       q    Type
REMARK                         _______ _______ _______ _____ _____    ______ ____
ROOT
ATOM      1  C   UNL     1      14.109  27.887  56.798  0.00  0.00    +0.037 C 
ATOM      2  C   UNL     1      13.252  26.673  56.434  0.00  0.00    +0.108 C 
ATOM      3  C   UNL     1      12.430  26.246  57.651  0.00  0.00    +0.037 C 
ENDROOT
BRANCH   2   4
ATOM      4  O   UNL     1      12.374  27.014  55.361  0.00  0.00    -0.392 OA
ATOM      5  H   UNL     1      12.235  27.965  55.252  0.00  0.00    +0.210 HD
ENDBRANCH   2   4
TORSDOF 1
ENDMDL
MODEL 3
REMARK VINA RESULT:      -2.8     22.647     23.080
REMARK  Name = IPA
REMARK  3 active torsions:
REMARK  status: ('A' for Active; 'I' for Inactive)
REMARK    1  A    between atoms: C_1  and  C_2
REMARK    2  A    between atoms: C_2  and  C_3
REMARK    3  A    between atoms: C_2  and  O_4
REMARK                            x       y       z     vdW  Elec       q    Type
REMARK                         _______ _______ _______ _____ _____    ______ ____
ROOT
ATOM      1  C   UNL     1      22.658  22.361  42.103  0.00  0.00    +0.037 C 
ATOM      2  C   UNL     1      22.631  20.832  42.176  0.00  0.00    +0.108 C 
ATOM      3  C   UNL     1      21.673  20.392  43.284  0.00  0.00    +0.037 C 
ENDROOT
BRANCH   2   4
ATOM      4  O   UNL     1      22.189  20.303  40.925  0.00  0.00    -0.392 OA
ATOM      5  H   UNL     1      21.250  20.072  40.905  0.00  0.00    +0.210 HD
ENDBRANCH   2   4
TORSDOF 1
ENDMDL
MODEL 4
REMARK VINA RESULT:      -2.8     25.045     25.410
REMARK  Name = IPA
REMARK  3 active torsions:
REMARK  status: ('A' for Active; 'I' for Inactive)
REMARK    1  A    between atoms: C_1  and  C_2
REMARK    2  A    between atoms: C_2  and  C_3
REMARK    3  A    between atoms: C_2  and  O_4
REMARK                            x       y       z     vdW  Elec       q    Type
REMARK                         _______ _______ _______ _____ _____    ______ ____
ROOT
ATOM      1  C   UNL     1       6.775  26.204  44.517  0.00  0.00    +0.037 C 
ATOM      2  C   UNL     1       7.219  26.757  45.874  0.00  0.00    +0.108 C 
ATOM      3  C   UNL     1       7.490  28.257  45.749  0.00  0.00    +0.037 C 
ENDROOT
BRANCH   2   4
ATOM      4  O   UNL     1       6.189  26.537  46.838  0.00  0.00    -0.392 OA
ATOM      5  H   UNL     1       5.884  25.621  46.886  0.00  0.00    +0.210 HD
ENDBRANCH   2   4
TORSDOF 1
ENDMDL
MODEL 5
REMARK VINA RESULT:      -2.8     11.661     12.102
REMARK  Name = IPA
REMARK  3 active torsions:
REMARK  status: ('A' for Active; 'I' for Inactive)
REMARK    1  A    between atoms: C_1  and  C_2
REMARK    2  A    between atoms: C_2  and  C_3
REMARK    3  A    between atoms: C_2  and  O_4
REMARK                            x       y       z     vdW  Elec       q    Type
REMARK                         _______ _______ _______ _____ _____    ______ ____
ROOT
ATOM      1  C   UNL     1      14.337  28.191  56.741  0.00  0.00    +0.037 C 
ATOM      2  C   UNL     1      15.627  27.632  57.347  0.00  0.00    +0.108 C 
ATOM      3  C   UNL     1      15.764  26.154  56.980  0.00  0.00    +0.037 C 
ENDROOT
BRANCH   2   4
ATOM      4  O   UNL     1      16.746  28.356  56.834  0.00  0.00    -0.392 OA
ATOM      5  H   UNL     1      16.587  29.304  56.726  0.00  0.00    +0.210 HD
ENDBRANCH   2   4
TORSDOF 1
ENDMDL
MODEL 6
REMARK VINA RESULT:      -2.7     13.183     13.381
REMARK  Name = IPA
REMARK  3 active torsions:
REMARK  status: ('A' for Active; 'I' for Inactive)
REMARK    1  A    between atoms: C_1  and  C_2
REMARK    2  A    between atoms: C_2  and  C_3
REMARK    3  A    between atoms: C_2  and  O_4
REMARK                            x       y       z     vdW  Elec       q    Type
REMARK                         _______ _______ _______ _____ _____    ______ ____
ROOT
ATOM      1  C   UNL     1      12.491  26.162  57.954  0.00  0.00    +0.037 C 
ATOM      2  C   UNL     1      12.829  26.756  56.584  0.00  0.00    +0.108 C 
ATOM      3  C   UNL     1      14.022  27.704  56.720  0.00  0.00    +0.037 C 
ENDROOT
BRANCH   2   4
ATOM      4  O   UNL     1      13.157  25.704  55.676  0.00  0.00    -0.392 OA
ATOM      5  H   UNL     1      12.569  24.939  55.732  0.00  0.00    +0.210 HD
ENDBRANCH   2   4
TORSDOF 1
ENDMDL
MODEL 7
REMARK VINA RESULT:      -2.7     16.388     16.706
REMARK  Name = IPA
REMARK  3 active torsions:
REMARK  status: ('A' for Active; 'I' for Inactive)
REMARK    1  A    between atoms: C_1  and  C_2
REMARK    2  A    between atoms: C_2  and  C_3
REMARK    3  A    between atoms: C_2  and  O_4
REMARK                            x       y       z     vdW  Elec       q    Type
REMARK                         _______ _______ _______ _____ _____    ______ ____
ROOT
ATOM      1  C   UNL     1      21.156  38.958  65.033  0.00  0.00    +0.037 C 
ATOM      2  C   UNL     1      22.331  38.614  65.951  0.00  0.00    +0.108 C 
ATOM      3  C   UNL     1      22.830  39.886  66.639  0.00  0.00    +0.037 C 
ENDROOT
BRANCH   2   4
ATOM      4  O   UNL     1      21.906  37.673  66.937  0.00  0.00    -0.392 OA
ATOM      5  H   UNL     1      21.326  36.979  66.596  0.00  0.00    +0.210 HD
ENDBRANCH   2   4
TORSDOF 1
ENDMDL
MODEL 8
REMARK VINA RESULT:      -2.7     14.276     14.445
REMARK  Name = IPA
REMARK  3 active torsions:
REMARK  status: ('A' for Active; 'I' for Inactive)
REMARK    1  A    between atoms: C_1  and  C_2
REMARK    2  A    between atoms: C_2  and  C_3
REMARK    3  A    between atoms: C_2  and  O_4
REMARK                            x       y       z     vdW  Elec       q    Type
REMARK                         _______ _______ _______ _____ _____    ______ ____
ROOT
ATOM      1  C   UNL     1      21.564  24.717  78.102  0.00  0.00    +0.037 C 
ATOM      2  C   UNL     1      20.486  25.453  78.901  0.00  0.00    +0.108 C 
ATOM      3  C   UNL     1      20.940  25.601  80.354  0.00  0.00    +0.037 C 
ENDROOT
BRANCH   2   4
ATOM      4  O   UNL     1      20.271  26.745  78.334  0.00  0.00    -0.392 OA
ATOM      5  H   UNL     1      21.085  27.218  78.113  0.00  0.00    +0.210 HD
ENDBRANCH   2   4
TORSDOF 1
ENDMDL
MODEL 9
REMARK VINA RESULT:      -2.6     12.123     12.262
REMARK  Name = IPA
REMARK  3 active torsions:
REMARK  status: ('A' for Active; 'I' for Inactive)
REMARK    1  A    between atoms: C_1  and  C_2
REMARK    2  A    between atoms: C_2  and  C_3
REMARK    3  A    between atoms: C_2  and  O_4
REMARK                            x       y       z     vdW  Elec       q    Type
REMARK                         _______ _______ _______ _____ _____    ______ ____
ROOT
ATOM      1  C   UNL     1      14.654  13.194  66.148  0.00  0.00    +0.037 C 
ATOM      2  C   UNL     1      15.052  12.539  67.473  0.00  0.00    +0.108 C 
ATOM      3  C   UNL     1      16.389  11.817  67.303  0.00  0.00    +0.037 C 
ENDROOT
BRANCH   2   4
ATOM      4  O   UNL     1      15.177  13.542  68.482  0.00  0.00    -0.392 OA
ATOM      5  H   UNL     1      14.448  14.178  68.497  0.00  0.00    +0.210 HD
ENDBRANCH   2   4
TORSDOF 1
ENDMDL
