MODEL 1
REMARK VINA RESULT:      -5.1      0.000      0.000
REMARK  Name = IPH
REMARK  1 active torsions:
REMARK  status: ('A' for Active; 'I' for Inactive)
REMARK    1  A    between atoms: C_1  and  O_7
REMARK                            x       y       z     vdW  Elec       q    Type
REMARK                         _______ _______ _______ _____ _____    ______ ____
ROOT
ATOM      1  C   UNL     1      12.734  26.734  56.349  0.00  0.00    +0.117 A 
ATOM      2  C   UNL     1      11.989  26.005  57.264  0.00  0.00    +0.045 A 
ATOM      3  C   UNL     1      12.364  25.976  58.592  0.00  0.00    +0.004 A 
ATOM      4  C   UNL     1      13.474  26.684  59.014  0.00  0.00    +0.000 A 
ATOM      5  C   UNL     1      14.216  27.416  58.104  0.00  0.00    +0.004 A 
ATOM      6  C   UNL     1      13.847  27.442  56.774  0.00  0.00    +0.045 A 
ENDROOT
BRANCH   1   7
ATOM      7  O   UNL     1      12.370  26.759  55.040  0.00  0.00    -0.507 OA
ATOM      8  H   UNL     1      12.319  25.840  54.747  0.00  0.00    +0.292 HD
ENDBRANCH   1   7
TORSDOF 1
ENDMDL
MODEL 2
REMARK VINA RESULT:      -5.1      0.036      1.813
REMARK  Name = IPH
REMARK  1 active torsions:
REMARK  status: ('A' for Active; 'I' for Inactive)
REMARK    1  A    between atoms: C_1  and  O_7
REMARK                            x       y       z     vdW  Elec       q    Type
REMARK                         _______ _______ _______ _____ _____    ______ ____
ROOT
ATOM      1  C   UNL     1      12.749  26.735  56.369  0.00  0.00    +0.117 A 
ATOM      2  C   UNL     1      13.865  27.428  56.812  0.00  0.00    +0.045 A 
ATOM      3  C   UNL     1      14.209  27.400  58.149  0.00  0.00    +0.004 A 
ATOM      4  C   UNL     1      13.449  26.670  59.044  0.00  0.00    +0.000 A 
ATOM      5  C   UNL     1      12.339  25.973  58.604  0.00  0.00    +0.004 A 
ATOM      6  C   UNL     1      11.988  26.004  57.269  0.00  0.00    +0.045 A 
ENDROOT
BRANCH   1   7
ATOM      7  O   UNL     1      12.405  26.766  55.055  0.00  0.00    -0.507 OA
ATOM      8  H   UNL     1      12.169  25.863  54.806  0.00  0.00    +0.292 HD
ENDBRANCH   1   7
TORSDOF 1
ENDMDL
MODEL 3
REMARK VINA RESULT:      -4.8      1.421      2.273
REMARK  Name = IPH
REMARK  1 active torsions:
REMARK  status: ('A' for Active; 'I' for Inactive)
REMARK    1  A    between atoms: C_1  and  O_7
REMARK                            x       y       z     vdW  Elec       q    Type
REMARK                         _______ _______ _______ _____ _____    ______ ____
ROOT
ATOM      1  C   UNL     1      14.246  27.544  57.206  0.00  0.00    +0.117 A 
ATOM      2  C   UNL     1      14.292  27.299  58.570  0.00  0.00    +0.045 A 
ATOM      3  C   UNL     1      13.312  26.530  59.166  0.00  0.00    +0.004 A 
ATOM      4  C   UNL     1      12.292  25.993  58.401  0.00  0.00    +0.000 A 
ATOM      5  C   UNL     1      12.248  26.232  57.040  0.00  0.00    +0.004 A 
ATOM      6  C   UNL     1      13.222  27.005  56.441  0.00  0.00    +0.045 A 
ENDROOT
BRANCH   1   7
ATOM      7  O   UNL     1      15.207  28.305  56.618  0.00  0.00    -0.507 OA
ATOM      8  H   UNL     1      15.226  29.146  57.093  0.00  0.00    +0.292 HD
ENDBRANCH   1   7
TORSDOF 1
ENDMDL
MODEL 4
REMARK VINA RESULT:      -4.6      2.150      2.774
REMARK  Name = IPH
REMARK  1 active torsions:
REMARK  status: ('A' for Active; 'I' for Inactive)
REMARK    1  A    between atoms: C_1  and  O_7
REMARK                            x       y       z     vdW  Elec       q    Type
REMARK                         _______ _______ _______ _____ _____    ______ ____
ROOT
ATOM      1  C   UNL     1      14.078  26.987  58.864  0.00  0.00    +0.117 A 
ATOM      2  C   UNL     1      12.950  26.181  58.902  0.00  0.00    +0.045 A 
ATOM      3  C   UNL     1      12.192  26.000  57.763  0.00  0.00    +0.004 A 
ATOM      4  C   UNL     1      12.563  26.613  56.579  0.00  0.00    +0.000 A 
ATOM      5  C   UNL     1      13.690  27.413  56.538  0.00  0.00    +0.004 A 
ATOM      6  C   UNL     1      14.447  27.601  57.676  0.00  0.00    +0.045 A 
ENDROOT
BRANCH   1   7
ATOM      7  O   UNL     1      14.822  27.171  59.986  0.00  0.00    -0.507 OA
ATOM      8  H   UNL     1      15.749  27.118  59.718  0.00  0.00    +0.292 HD
ENDBRANCH   1   7
TORSDOF 1
ENDMDL
MODEL 5
REMARK VINA RESULT:      -4.5     16.842     17.942
REMARK  Name = IPH
REMARK  1 active torsions:
REMARK  status: ('A' for Active; 'I' for Inactive)
REMARK    1  A    between atoms: C_1  and  O_7
REMARK                            x       y       z     vdW  Elec       q    Type
REMARK                         _______ _______ _______ _____ _____    ______ ____
ROOT
ATOM      1  C   UNL     1      21.931  38.761  66.151  0.00  0.00    +0.117 A 
ATOM      2  C   UNL     1      21.133  38.912  65.027  0.00  0.00    +0.045 A 
ATOM      3  C   UNL     1      21.095  40.123  64.366  0.00  0.00    +0.004 A 
ATOM      4  C   UNL     1      21.862  41.183  64.816  0.00  0.00    +0.000 A 
ATOM      5  C   UNL     1      22.663  41.032  65.934  0.00  0.00    +0.004 A 
ATOM      6  C   UNL     1      22.699  39.825  66.601  0.00  0.00    +0.045 A 
ENDROOT
BRANCH   1   7
ATOM      7  O   UNL     1      21.966  37.571  66.807  0.00  0.00    -0.507 OA
ATOM      8  H   UNL     1      21.887  37.769  67.749  0.00  0.00    +0.292 HD
ENDBRANCH   1   7
TORSDOF 1
ENDMDL
MODEL 6
REMARK VINA RESULT:      -4.1     16.394     17.485
REMARK  Name = IPH
REMARK  1 active torsions:
REMARK  status: ('A' for Active; 'I' for Inactive)
REMARK    1  A    between atoms: C_1  and  O_7
REMARK                            x       y       z     vdW  Elec       q    Type
REMARK                         _______ _______ _______ _____ _____    ______ ____
ROOT
ATOM      1  C   UNL     1      21.087  38.795  64.923  0.00  0.00    +0.117 A 
ATOM      2  C   UNL     1      21.885  38.576  66.036  0.00  0.00    +0.045 A 
ATOM      3  C   UNL     1      22.649  39.604  66.551  0.00  0.00    +0.004 A 
ATOM      4  C   UNL     1      22.609  40.857  65.965  0.00  0.00    +0.000 A 
ATOM      5  C   UNL     1      21.811  41.079  64.858  0.00  0.00    +0.004 A 
ATOM      6  C   UNL     1      21.050  40.052  64.337  0.00  0.00    +0.045 A 
ENDROOT
BRANCH   1   7
ATOM      7  O   UNL     1      20.339  37.783  64.411  0.00  0.00    -0.507 OA
ATOM      8  H   UNL     1      19.580  37.672  64.999  0.00  0.00    +0.292 HD
ENDBRANCH   1   7
TORSDOF 1
ENDMDL
MODEL 7
REMARK VINA RESULT:      -4.1     12.818     13.462
REMARK  Name = IPH
REMARK  1 active torsions:
REMARK  status: ('A' for Active; 'I' for Inactive)
REMARK    1  A    between atoms: C_1  and  O_7
REMARK                            x       y       z     vdW  Elec       q    Type
REMARK                         _______ _______ _______ _____ _____    ______ ____
ROOT
ATOM      1  C   UNL     1       7.163  26.784  45.845  0.00  0.00    +0.117 A 
ATOM      2  C   UNL     1       7.510  25.820  44.910  0.00  0.00    +0.045 A 
ATOM      3  C   UNL     1       8.414  26.121  43.912  0.00  0.00    +0.004 A 
ATOM      4  C   UNL     1       8.984  27.380  43.850  0.00  0.00    +0.000 A 
ATOM      5  C   UNL     1       8.643  28.341  44.784  0.00  0.00    +0.004 A 
ATOM      6  C   UNL     1       7.734  28.046  45.780  0.00  0.00    +0.045 A 
ENDROOT
BRANCH   1   7
ATOM      7  O   UNL     1       6.268  26.491  46.825  0.00  0.00    -0.507 OA
ATOM      8  H   UNL     1       5.676  27.251  46.899  0.00  0.00    +0.292 HD
ENDBRANCH   1   7
TORSDOF 1
ENDMDL
MODEL 8
REMARK VINA RESULT:      -4.1     12.443     13.479
REMARK  Name = IPH
REMARK  1 active torsions:
REMARK  status: ('A' for Active; 'I' for Inactive)
REMARK    1  A    between atoms: C_1  and  O_7
REMARK                            x       y       z     vdW  Elec       q    Type
REMARK                         _______ _______ _______ _____ _____    ______ ____
ROOT
ATOM      1  C   UNL     1      19.712  37.048  63.263  0.00  0.00    +0.117 A 
ATOM      2  C   UNL     1      19.008  36.019  62.657  0.00  0.00    +0.045 A 
ATOM      3  C   UNL     1      17.815  36.283  62.015  0.00  0.00    +0.004 A 
ATOM      4  C   UNL     1      17.327  37.576  61.964  0.00  0.00    +0.000 A 
ATOM      5  C   UNL     1      18.030  38.606  62.564  0.00  0.00    +0.004 A 
ATOM      6  C   UNL     1      19.221  38.344  63.212  0.00  0.00    +0.045 A 
ENDROOT
BRANCH   1   7
ATOM      7  O   UNL     1      20.884  36.789  63.900  0.00  0.00    -0.507 OA
ATOM      8  H   UNL     1      20.760  35.965  64.388  0.00  0.00    +0.292 HD
ENDBRANCH   1   7
TORSDOF 1
ENDMDL
MODEL 9
REMARK VINA RESULT:      -4.1     17.057     18.100
REMARK  Name = IPH
REMARK  1 active torsions:
REMARK  status: ('A' for Active; 'I' for Inactive)
REMARK    1  A    between atoms: C_1  and  O_7
REMARK                            x       y       z     vdW  Elec       q    Type
REMARK                         _______ _______ _______ _____ _____    ______ ____
ROOT
ATOM      1  C   UNL     1      21.832  41.065  64.948  0.00  0.00    +0.117 A 
ATOM      2  C   UNL     1      21.098  40.009  64.430  0.00  0.00    +0.045 A 
ATOM      3  C   UNL     1      21.180  38.761  65.013  0.00  0.00    +0.004 A 
ATOM      4  C   UNL     1      21.982  38.565  66.122  0.00  0.00    +0.000 A 
ATOM      5  C   UNL     1      22.711  39.618  66.644  0.00  0.00    +0.004 A 
ATOM      6  C   UNL     1      22.637  40.867  66.060  0.00  0.00    +0.045 A 
ENDROOT
BRANCH   1   7
ATOM      7  O   UNL     1      21.757  42.294  64.372  0.00  0.00    -0.507 OA
ATOM      8  H   UNL     1      22.662  42.564  64.172  0.00  0.00    +0.292 HD
ENDBRANCH   1   7
TORSDOF 1
ENDMDL
