MODEL 1
REMARK VINA RESULT:      -2.3      0.000      0.000
REMARK  Name = NME
REMARK  1 active torsions:
REMARK  status: ('A' for Active; 'I' for Inactive)
REMARK    1  A    between atoms: N_1  and  C_2
REMARK                            x       y       z     vdW  Elec       q    Type
REMARK                         _______ _______ _______ _____ _____    ______ ____
ROOT
ATOM      1  N   UNL     1      22.249  20.316  40.886  0.00  0.00    -0.333 NA
ATOM      2  H   UNL     1      23.093  19.838  40.608  0.00  0.00    +0.118 HD
ATOM      3  H   UNL     1      22.096  21.136  40.317  0.00  0.00    +0.118 HD
ATOM      4  C   UNL     1      22.286  20.664  42.313  0.00  0.00    +0.097 C 
ENDROOT
TORSDOF 0
ENDMDL
MODEL 2
REMARK VINA RESULT:      -2.1     37.259     37.259
REMARK  Name = NME
REMARK  1 active torsions:
REMARK  status: ('A' for Active; 'I' for Inactive)
REMARK    1  A    between atoms: N_1  and  C_2
REMARK                            x       y       z     vdW  Elec       q    Type
REMARK                         _______ _______ _______ _____ _____    ______ ____
ROOT
ATOM      1  N   UNL     1      19.248  27.245  77.926  0.00  0.00    -0.333 NA
ATOM      2  H   UNL     1      18.257  27.124  78.073  0.00  0.00    +0.118 HD
ATOM      3  H   UNL     1      19.459  27.328  76.942  0.00  0.00    +0.118 HD
ATOM      4  C   UNL     1      20.009  26.148  78.538  0.00  0.00    +0.097 C 
ENDROOT
TORSDOF 0
ENDMDL
MODEL 3
REMARK VINA RESULT:      -1.8     25.329     25.329
REMARK  Name = NME
REMARK  1 active torsions:
REMARK  status: ('A' for Active; 'I' for Inactive)
REMARK    1  A    between atoms: N_1  and  C_2
REMARK                            x       y       z     vdW  Elec       q    Type
REMARK                         _______ _______ _______ _____ _____    ______ ____
ROOT
ATOM      1  N   UNL     1      20.793  41.397  55.502  0.00  0.00    -0.333 NA
ATOM      2  H   UNL     1      20.307  41.464  54.620  0.00  0.00    +0.118 HD
ATOM      3  H   UNL     1      21.573  40.758  55.436  0.00  0.00    +0.118 HD
ATOM      4  C   UNL     1      19.877  41.001  56.580  0.00  0.00    +0.097 C 
ENDROOT
TORSDOF 0
ENDMDL
MODEL 4
REMARK VINA RESULT:      -1.8     17.404     17.404
REMARK  Name = NME
REMARK  1 active torsions:
REMARK  status: ('A' for Active; 'I' for Inactive)
REMARK    1  A    between atoms: N_1  and  C_2
REMARK                            x       y       z     vdW  Elec       q    Type
REMARK                         _______ _______ _______ _____ _____    ______ ____
ROOT
ATOM      1  N   UNL     1       6.287  26.487  46.844  0.00  0.00    -0.333 NA
ATOM      2  H   UNL     1       6.647  25.718  47.389  0.00  0.00    +0.118 HD
ATOM      3  H   UNL     1       5.439  26.225  46.364  0.00  0.00    +0.118 HD
ATOM      4  C   UNL     1       7.297  26.980  45.897  0.00  0.00    +0.097 C 
ENDROOT
TORSDOF 0
ENDMDL
MODEL 5
REMARK VINA RESULT:      -1.8     18.121     18.121
REMARK  Name = NME
REMARK  1 active torsions:
REMARK  status: ('A' for Active; 'I' for Inactive)
REMARK    1  A    between atoms: N_1  and  C_2
REMARK                            x       y       z     vdW  Elec       q    Type
REMARK                         _______ _______ _______ _____ _____    ______ ____
ROOT
ATOM      1  N   UNL     1      23.582  22.068  60.154  0.00  0.00    -0.333 NA
ATOM      2  H   UNL     1      23.814  21.337  60.810  0.00  0.00    +0.118 HD
ATOM      3  H   UNL     1      23.097  22.825  60.613  0.00  0.00    +0.118 HD
ATOM      4  C   UNL     1      22.793  21.540  59.033  0.00  0.00    +0.097 C 
ENDROOT
TORSDOF 0
ENDMDL
MODEL 6
REMARK VINA RESULT:      -1.7     18.323     18.323
REMARK  Name = NME
REMARK  1 active torsions:
REMARK  status: ('A' for Active; 'I' for Inactive)
REMARK    1  A    between atoms: N_1  and  C_2
REMARK                            x       y       z     vdW  Elec       q    Type
REMARK                         _______ _______ _______ _____ _____    ______ ____
ROOT
ATOM      1  N   UNL     1      16.977  28.224  57.137  0.00  0.00    -0.333 NA
ATOM      2  H   UNL     1      17.267  28.347  56.179  0.00  0.00    +0.118 HD
ATOM      3  H   UNL     1      17.600  27.597  57.625  0.00  0.00    +0.118 HD
ATOM      4  C   UNL     1      15.588  27.749  57.211  0.00  0.00    +0.097 C 
ENDROOT
TORSDOF 0
ENDMDL
MODEL 7
REMARK VINA RESULT:      -1.7     16.898     16.898
REMARK  Name = NME
REMARK  1 active torsions:
REMARK  status: ('A' for Active; 'I' for Inactive)
REMARK    1  A    between atoms: N_1  and  C_2
REMARK                            x       y       z     vdW  Elec       q    Type
REMARK                         _______ _______ _______ _____ _____    ______ ____
ROOT
ATOM      1  N   UNL     1       9.840  31.260  44.456  0.00  0.00    -0.333 NA
ATOM      2  H   UNL     1       9.459  31.973  43.852  0.00  0.00    +0.118 HD
ATOM      3  H   UNL     1      10.537  30.712  43.973  0.00  0.00    +0.118 HD
ATOM      4  C   UNL     1       8.776  30.402  44.995  0.00  0.00    +0.097 C 
ENDROOT
TORSDOF 0
ENDMDL
MODEL 8
REMARK VINA RESULT:      -1.7     16.823     16.823
REMARK  Name = NME
REMARK  1 active torsions:
REMARK  status: ('A' for Active; 'I' for Inactive)
REMARK    1  A    between atoms: N_1  and  C_2
REMARK                            x       y       z     vdW  Elec       q    Type
REMARK                         _______ _______ _______ _____ _____    ______ ____
ROOT
ATOM      1  N   UNL     1      21.198  25.418  58.073  0.00  0.00    -0.333 NA
ATOM      2  H   UNL     1      21.521  25.171  58.996  0.00  0.00    +0.118 HD
ATOM      3  H   UNL     1      20.555  26.195  58.112  0.00  0.00    +0.118 HD
ATOM      4  C   UNL     1      20.588  24.263  57.401  0.00  0.00    +0.097 C 
ENDROOT
TORSDOF 0
ENDMDL
MODEL 9
REMARK VINA RESULT:      -1.6     35.740     35.740
REMARK  Name = NME
REMARK  1 active torsions:
REMARK  status: ('A' for Active; 'I' for Inactive)
REMARK    1  A    between atoms: N_1  and  C_2
REMARK                            x       y       z     vdW  Elec       q    Type
REMARK                         _______ _______ _______ _____ _____    ______ ____
ROOT
ATOM      1  N   UNL     1       1.990  31.697  67.864  0.00  0.00    -0.333 NA
ATOM      2  H   UNL     1       2.508  30.867  68.111  0.00  0.00    +0.118 HD
ATOM      3  H   UNL     1       2.601  32.499  67.802  0.00  0.00    +0.118 HD
ATOM      4  C   UNL     1       0.898  31.940  68.815  0.00  0.00    +0.097 C 
ENDROOT
TORSDOF 0
ENDMDL
