MODEL 1
REMARK VINA RESULT:      -3.2      0.000      0.000
REMARK  Name = URE
REMARK  0 active torsions:
REMARK  status: ('A' for Active; 'I' for Inactive)
REMARK                            x       y       z     vdW  Elec       q    Type
REMARK                         _______ _______ _______ _____ _____    ______ ____
ROOT
ATOM      1  C   UNL     1       8.871  30.185  45.194  0.00  0.00    +0.294 C 
ATOM      2  N   UNL     1       9.195  31.493  45.203  0.00  0.00    -0.314 N 
ATOM      3  H   UNL     1       8.882  32.065  45.921  0.00  0.00    +0.146 HD
ATOM      4  H   UNL     1       9.741  31.862  44.491  0.00  0.00    +0.146 HD
ATOM      5  N   UNL     1       8.113  29.671  46.182  0.00  0.00    -0.314 N 
ATOM      6  H   UNL     1       7.802  30.242  46.902  0.00  0.00    +0.146 HD
ATOM      7  H   UNL     1       7.879  28.730  46.175  0.00  0.00    +0.146 HD
ATOM      8  O   UNL     1       9.263  29.469  44.294  0.00  0.00    -0.253 OA
ENDROOT
TORSDOF 0
ENDMDL
MODEL 2
REMARK VINA RESULT:      -3.1     21.173     21.326
REMARK  Name = URE
REMARK  0 active torsions:
REMARK  status: ('A' for Active; 'I' for Inactive)
REMARK                            x       y       z     vdW  Elec       q    Type
REMARK                         _______ _______ _______ _____ _____    ______ ____
ROOT
ATOM      1  C   UNL     1      22.635  21.725  59.072  0.00  0.00    +0.294 C 
ATOM      2  N   UNL     1      21.732  22.627  58.641  0.00  0.00    -0.314 N 
ATOM      3  H   UNL     1      21.676  23.497  59.065  0.00  0.00    +0.146 HD
ATOM      4  H   UNL     1      21.137  22.405  57.907  0.00  0.00    +0.146 HD
ATOM      5  N   UNL     1      23.461  22.032  60.091  0.00  0.00    -0.314 N 
ATOM      6  H   UNL     1      23.407  22.903  60.513  0.00  0.00    +0.146 HD
ATOM      7  H   UNL     1      24.111  21.382  60.402  0.00  0.00    +0.146 HD
ATOM      8  O   UNL     1      22.705  20.634  58.541  0.00  0.00    -0.253 OA
ENDROOT
TORSDOF 0
ENDMDL
MODEL 3
REMARK VINA RESULT:      -3.1     24.671     24.840
REMARK  Name = URE
REMARK  0 active torsions:
REMARK  status: ('A' for Active; 'I' for Inactive)
REMARK                            x       y       z     vdW  Elec       q    Type
REMARK                         _______ _______ _______ _____ _____    ______ ____
ROOT
ATOM      1  C   UNL     1      22.335  22.374  64.504  0.00  0.00    +0.294 C 
ATOM      2  N   UNL     1      21.897  23.098  63.456  0.00  0.00    -0.314 N 
ATOM      3  H   UNL     1      22.480  23.754  63.043  0.00  0.00    +0.146 HD
ATOM      4  H   UNL     1      20.999  22.964  63.115  0.00  0.00    +0.146 HD
ATOM      5  N   UNL     1      23.582  22.560  64.978  0.00  0.00    -0.314 N 
ATOM      6  H   UNL     1      24.166  23.214  64.563  0.00  0.00    +0.146 HD
ATOM      7  H   UNL     1      23.898  22.039  65.733  0.00  0.00    +0.146 HD
ATOM      8  O   UNL     1      21.605  21.553  65.022  0.00  0.00    -0.253 OA
ENDROOT
TORSDOF 0
ENDMDL
MODEL 4
REMARK VINA RESULT:      -3.1     40.320     40.491
REMARK  Name = URE
REMARK  0 active torsions:
REMARK  status: ('A' for Active; 'I' for Inactive)
REMARK                            x       y       z     vdW  Elec       q    Type
REMARK                         _______ _______ _______ _____ _____    ______ ____
ROOT
ATOM      1  C   UNL     1      21.210  27.173  83.664  0.00  0.00    +0.294 C 
ATOM      2  N   UNL     1      21.061  27.756  82.458  0.00  0.00    -0.314 N 
ATOM      3  H   UNL     1      20.438  27.385  81.814  0.00  0.00    +0.146 HD
ATOM      4  H   UNL     1      21.577  28.546  82.235  0.00  0.00    +0.146 HD
ATOM      5  N   UNL     1      20.494  26.076  83.976  0.00  0.00    -0.314 N 
ATOM      6  H   UNL     1      19.868  25.707  83.333  0.00  0.00    +0.146 HD
ATOM      7  H   UNL     1      20.601  25.657  84.844  0.00  0.00    +0.146 HD
ATOM      8  O   UNL     1      21.990  27.638  84.471  0.00  0.00    -0.253 OA
ENDROOT
TORSDOF 0
ENDMDL
MODEL 5
REMARK VINA RESULT:      -3.0     15.117     15.504
REMARK  Name = URE
REMARK  0 active torsions:
REMARK  status: ('A' for Active; 'I' for Inactive)
REMARK                            x       y       z     vdW  Elec       q    Type
REMARK                         _______ _______ _______ _____ _____    ______ ____
ROOT
ATOM      1  C   UNL     1      -2.551  26.133  54.854  0.00  0.00    +0.294 C 
ATOM      2  N   UNL     1      -2.681  27.438  54.545  0.00  0.00    -0.314 N 
ATOM      3  H   UNL     1      -3.224  28.016  55.103  0.00  0.00    +0.146 HD
ATOM      4  H   UNL     1      -2.230  27.799  53.766  0.00  0.00    +0.146 HD
ATOM      5  N   UNL     1      -3.176  25.630  55.936  0.00  0.00    -0.314 N 
ATOM      6  H   UNL     1      -3.718  26.209  56.495  0.00  0.00    +0.146 HD
ATOM      7  H   UNL     1      -3.083  24.690  56.157  0.00  0.00    +0.146 HD
ATOM      8  O   UNL     1      -1.870  25.409  54.155  0.00  0.00    -0.253 OA
ENDROOT
TORSDOF 0
ENDMDL
MODEL 6
REMARK VINA RESULT:      -2.9     16.785     17.213
REMARK  Name = URE
REMARK  0 active torsions:
REMARK  status: ('A' for Active; 'I' for Inactive)
REMARK                            x       y       z     vdW  Elec       q    Type
REMARK                         _______ _______ _______ _____ _____    ______ ____
ROOT
ATOM      1  C   UNL     1       9.043  13.057  45.243  0.00  0.00    +0.294 C 
ATOM      2  N   UNL     1      10.072  13.561  45.951  0.00  0.00    -0.314 N 
ATOM      3  H   UNL     1      10.560  12.994  46.568  0.00  0.00    +0.146 HD
ATOM      4  H   UNL     1      10.325  14.492  45.844  0.00  0.00    +0.146 HD
ATOM      5  N   UNL     1       8.691  11.765  45.391  0.00  0.00    -0.314 N 
ATOM      6  H   UNL     1       9.181  11.197  46.006  0.00  0.00    +0.146 HD
ATOM      7  H   UNL     1       7.950  11.402  44.881  0.00  0.00    +0.146 HD
ATOM      8  O   UNL     1       8.431  13.767  44.470  0.00  0.00    -0.253 OA
ENDROOT
TORSDOF 0
ENDMDL
MODEL 7
REMARK VINA RESULT:      -2.9      8.292      8.467
REMARK  Name = URE
REMARK  0 active torsions:
REMARK  status: ('A' for Active; 'I' for Inactive)
REMARK                            x       y       z     vdW  Elec       q    Type
REMARK                         _______ _______ _______ _____ _____    ______ ____
ROOT
ATOM      1  C   UNL     1       2.510  24.907  43.874  0.00  0.00    +0.294 C 
ATOM      2  N   UNL     1       3.710  24.819  44.481  0.00  0.00    -0.314 N 
ATOM      3  H   UNL     1       4.097  25.602  44.903  0.00  0.00    +0.146 HD
ATOM      4  H   UNL     1       4.186  23.974  44.495  0.00  0.00    +0.146 HD
ATOM      5  N   UNL     1       1.848  26.080  43.854  0.00  0.00    -0.314 N 
ATOM      6  H   UNL     1       2.235  26.862  44.279  0.00  0.00    +0.146 HD
ATOM      7  H   UNL     1       0.984  26.143  43.417  0.00  0.00    +0.146 HD
ATOM      8  O   UNL     1       2.024  23.927  43.345  0.00  0.00    -0.253 OA
ENDROOT
TORSDOF 0
ENDMDL
MODEL 8
REMARK VINA RESULT:      -2.8     35.783     35.943
REMARK  Name = URE
REMARK  0 active torsions:
REMARK  status: ('A' for Active; 'I' for Inactive)
REMARK                            x       y       z     vdW  Elec       q    Type
REMARK                         _______ _______ _______ _____ _____    ______ ____
ROOT
ATOM      1  C   UNL     1      20.379  26.008  78.984  0.00  0.00    +0.294 C 
ATOM      2  N   UNL     1      19.194  26.327  78.430  0.00  0.00    -0.314 N 
ATOM      3  H   UNL     1      19.045  26.178  77.483  0.00  0.00    +0.146 HD
ATOM      4  H   UNL     1      18.488  26.707  78.977  0.00  0.00    +0.146 HD
ATOM      5  N   UNL     1      21.359  25.481  78.224  0.00  0.00    -0.314 N 
ATOM      6  H   UNL     1      21.210  25.329  77.277  0.00  0.00    +0.146 HD
ATOM      7  H   UNL     1      22.212  25.251  78.623  0.00  0.00    +0.146 HD
ATOM      8  O   UNL     1      20.565  26.194  80.170  0.00  0.00    -0.253 OA
ENDROOT
TORSDOF 0
ENDMDL
MODEL 9
REMARK VINA RESULT:      -2.8     24.303     24.483
REMARK  Name = URE
REMARK  0 active torsions:
REMARK  status: ('A' for Active; 'I' for Inactive)
REMARK                            x       y       z     vdW  Elec       q    Type
REMARK                         _______ _______ _______ _____ _____    ______ ____
ROOT
ATOM      1  C   UNL     1      22.090  22.817  64.371  0.00  0.00    +0.294 C 
ATOM      2  N   UNL     1      23.327  22.463  64.770  0.00  0.00    -0.314 N 
ATOM      3  H   UNL     1      23.440  21.839  65.504  0.00  0.00    +0.146 HD
ATOM      4  H   UNL     1      24.105  22.833  64.323  0.00  0.00    +0.146 HD
ATOM      5  N   UNL     1      21.009  22.304  64.991  0.00  0.00    -0.314 N 
ATOM      6  H   UNL     1      21.122  21.678  65.723  0.00  0.00    +0.146 HD
ATOM      7  H   UNL     1      20.118  22.559  64.704  0.00  0.00    +0.146 HD
ATOM      8  O   UNL     1      21.948  23.598  63.452  0.00  0.00    -0.253 OA
ENDROOT
TORSDOF 0
ENDMDL
