MODEL 1
REMARK VINA RESULT:      -2.0      0.000      0.000
REMARK  Name = 2F2
REMARK  2 active torsions:
REMARK  status: ('A' for Active; 'I' for Inactive)
REMARK    1  A    between atoms: C_1  and  O_2
REMARK    2  A    between atoms: O_2  and  C_3
REMARK                            x       y       z     vdW  Elec       q    Type
REMARK                         _______ _______ _______ _____ _____    ______ ____
ROOT
ATOM      1  C   UNL     1     -27.555  17.224 112.391  0.00  0.00    +0.193 C 
ATOM      2  O   UNL     1     -27.906  17.621 113.718  0.00  0.00    -0.386 OA
ATOM      3  C   UNL     1     -27.566  16.662 114.722  0.00  0.00    +0.193 C 
ENDROOT
TORSDOF 0
ENDMDL
MODEL 2
REMARK VINA RESULT:      -1.9     16.701     16.959
REMARK  Name = 2F2
REMARK  2 active torsions:
REMARK  status: ('A' for Active; 'I' for Inactive)
REMARK    1  A    between atoms: C_1  and  O_2
REMARK    2  A    between atoms: O_2  and  C_3
REMARK                            x       y       z     vdW  Elec       q    Type
REMARK                         _______ _______ _______ _____ _____    ______ ____
ROOT
ATOM      1  C   UNL     1     -12.136  22.209 120.491  0.00  0.00    +0.193 C 
ATOM      2  O   UNL     1     -13.527  21.892 120.583  0.00  0.00    -0.386 OA
ATOM      3  C   UNL     1     -14.092  22.117 121.876  0.00  0.00    +0.193 C 
ENDROOT
TORSDOF 0
ENDMDL
MODEL 3
REMARK VINA RESULT:      -1.8     17.605     17.714
REMARK  Name = 2F2
REMARK  2 active torsions:
REMARK  status: ('A' for Active; 'I' for Inactive)
REMARK    1  A    between atoms: C_1  and  O_2
REMARK    2  A    between atoms: O_2  and  C_3
REMARK                            x       y       z     vdW  Elec       q    Type
REMARK                         _______ _______ _______ _____ _____    ______ ____
ROOT
ATOM      1  C   UNL     1     -11.828  22.554 117.453  0.00  0.00    +0.193 C 
ATOM      2  O   UNL     1     -11.285  23.046 118.681  0.00  0.00    -0.386 OA
ATOM      3  C   UNL     1     -11.709  22.321 119.837  0.00  0.00    +0.193 C 
ENDROOT
TORSDOF 0
ENDMDL
MODEL 4
REMARK VINA RESULT:      -1.8     13.258     13.531
REMARK  Name = 2F2
REMARK  2 active torsions:
REMARK  status: ('A' for Active; 'I' for Inactive)
REMARK    1  A    between atoms: C_1  and  O_2
REMARK    2  A    between atoms: O_2  and  C_3
REMARK                            x       y       z     vdW  Elec       q    Type
REMARK                         _______ _______ _______ _____ _____    ______ ____
ROOT
ATOM      1  C   UNL     1     -14.398  19.997 108.252  0.00  0.00    +0.193 C 
ATOM      2  O   UNL     1     -14.907  19.471 109.480  0.00  0.00    -0.386 OA
ATOM      3  C   UNL     1     -16.303  19.170 109.450  0.00  0.00    +0.193 C 
ENDROOT
TORSDOF 0
ENDMDL
MODEL 5
REMARK VINA RESULT:      -1.8     13.542     13.899
REMARK  Name = 2F2
REMARK  2 active torsions:
REMARK  status: ('A' for Active; 'I' for Inactive)
REMARK    1  A    between atoms: C_1  and  O_2
REMARK    2  A    between atoms: O_2  and  C_3
REMARK                            x       y       z     vdW  Elec       q    Type
REMARK                         _______ _______ _______ _____ _____    ______ ____
ROOT
ATOM      1  C   UNL     1     -15.261  19.066 109.998  0.00  0.00    +0.193 C 
ATOM      2  O   UNL     1     -15.387  19.410 108.616  0.00  0.00    -0.386 OA
ATOM      3  C   UNL     1     -14.245  20.080 108.077  0.00  0.00    +0.193 C 
ENDROOT
TORSDOF 0
ENDMDL
MODEL 6
REMARK VINA RESULT:      -1.8     17.506     17.716
REMARK  Name = 2F2
REMARK  2 active torsions:
REMARK  status: ('A' for Active; 'I' for Inactive)
REMARK    1  A    between atoms: C_1  and  O_2
REMARK    2  A    between atoms: O_2  and  C_3
REMARK                            x       y       z     vdW  Elec       q    Type
REMARK                         _______ _______ _______ _____ _____    ______ ____
ROOT
ATOM      1  C   UNL     1     -11.800  22.211 119.647  0.00  0.00    +0.193 C 
ATOM      2  O   UNL     1     -11.374  23.041 118.564  0.00  0.00    -0.386 OA
ATOM      3  C   UNL     1     -11.825  22.602 117.281  0.00  0.00    +0.193 C 
ENDROOT
TORSDOF 0
ENDMDL
MODEL 7
REMARK VINA RESULT:      -1.8      3.726      3.726
REMARK  Name = 2F2
REMARK  2 active torsions:
REMARK  status: ('A' for Active; 'I' for Inactive)
REMARK    1  A    between atoms: C_1  and  O_2
REMARK    2  A    between atoms: O_2  and  C_3
REMARK                            x       y       z     vdW  Elec       q    Type
REMARK                         _______ _______ _______ _____ _____    ______ ____
ROOT
ATOM      1  C   UNL     1     -29.176  14.258 112.403  0.00  0.00    +0.193 C 
ATOM      2  O   UNL     1     -30.534  14.703 112.415  0.00  0.00    -0.386 OA
ATOM      3  C   UNL     1     -30.786  15.780 113.320  0.00  0.00    +0.193 C 
ENDROOT
TORSDOF 0
ENDMDL
MODEL 8
REMARK VINA RESULT:      -1.8     14.616     15.140
REMARK  Name = 2F2
REMARK  2 active torsions:
REMARK  status: ('A' for Active; 'I' for Inactive)
REMARK    1  A    between atoms: C_1  and  O_2
REMARK    2  A    between atoms: O_2  and  C_3
REMARK                            x       y       z     vdW  Elec       q    Type
REMARK                         _______ _______ _______ _____ _____    ______ ____
ROOT
ATOM      1  C   UNL     1     -18.774  10.283 104.421  0.00  0.00    +0.193 C 
ATOM      2  O   UNL     1     -19.012  11.259 103.404  0.00  0.00    -0.386 OA
ATOM      3  C   UNL     1     -18.664  10.826 102.087  0.00  0.00    +0.193 C 
ENDROOT
TORSDOF 0
ENDMDL
MODEL 9
REMARK VINA RESULT:      -1.7     11.592     11.814
REMARK  Name = 2F2
REMARK  2 active torsions:
REMARK  status: ('A' for Active; 'I' for Inactive)
REMARK    1  A    between atoms: C_1  and  O_2
REMARK    2  A    between atoms: O_2  and  C_3
REMARK                            x       y       z     vdW  Elec       q    Type
REMARK                         _______ _______ _______ _____ _____    ______ ____
ROOT
ATOM      1  C   UNL     1     -15.608  19.068 109.540  0.00  0.00    +0.193 C 
ATOM      2  O   UNL     1     -17.019  19.244 109.682  0.00  0.00    -0.386 OA
ATOM      3  C   UNL     1     -17.415  19.774 110.949  0.00  0.00    +0.193 C 
ENDROOT
TORSDOF 0
ENDMDL
