MODEL 1
REMARK VINA RESULT:      -2.5      0.000      0.000
REMARK  Name = ACE
REMARK  1 active torsions:
REMARK  status: ('A' for Active; 'I' for Inactive)
REMARK    1  A    between atoms: C_1  and  C_3
REMARK                            x       y       z     vdW  Elec       q    Type
REMARK                         _______ _______ _______ _____ _____    ______ ____
ROOT
ATOM      1  C   UNL     1     -15.069  22.858 114.247  0.00  0.00    +0.220 C 
ATOM      2  C   UNL     1     -16.070  23.984 114.257  0.00  0.00    +0.082 C 
ATOM      3  O   UNL     1     -14.326  22.720 113.305  0.00  0.00    -0.301 OA
ENDROOT
TORSDOF 0
ENDMDL
MODEL 2
REMARK VINA RESULT:      -2.4      6.243      6.404
REMARK  Name = ACE
REMARK  1 active torsions:
REMARK  status: ('A' for Active; 'I' for Inactive)
REMARK    1  A    between atoms: C_1  and  C_3
REMARK                            x       y       z     vdW  Elec       q    Type
REMARK                         _______ _______ _______ _____ _____    ______ ____
ROOT
ATOM      1  C   UNL     1     -15.666  19.120 109.571  0.00  0.00    +0.220 C 
ATOM      2  C   UNL     1     -14.693  19.741 108.602  0.00  0.00    +0.082 C 
ATOM      3  O   UNL     1     -16.850  19.142 109.334  0.00  0.00    -0.301 OA
ENDROOT
TORSDOF 0
ENDMDL
MODEL 3
REMARK VINA RESULT:      -2.4      5.904      5.961
REMARK  Name = ACE
REMARK  1 active torsions:
REMARK  status: ('A' for Active; 'I' for Inactive)
REMARK    1  A    between atoms: C_1  and  C_3
REMARK                            x       y       z     vdW  Elec       q    Type
REMARK                         _______ _______ _______ _____ _____    ______ ____
ROOT
ATOM      1  C   UNL     1     -18.759  19.511 115.788  0.00  0.00    +0.220 C 
ATOM      2  C   UNL     1     -19.897  18.666 115.273  0.00  0.00    +0.082 C 
ATOM      3  O   UNL     1     -18.987  20.569 116.321  0.00  0.00    -0.301 OA
ENDROOT
TORSDOF 0
ENDMDL
MODEL 4
REMARK VINA RESULT:      -2.3     10.831     11.036
REMARK  Name = ACE
REMARK  1 active torsions:
REMARK  status: ('A' for Active; 'I' for Inactive)
REMARK    1  A    between atoms: C_1  and  C_3
REMARK                            x       y       z     vdW  Elec       q    Type
REMARK                         _______ _______ _______ _____ _____    ______ ____
ROOT
ATOM      1  C   UNL     1     -24.955  21.086 108.785  0.00  0.00    +0.220 C 
ATOM      2  C   UNL     1     -24.256  22.090 109.666  0.00  0.00    +0.082 C 
ATOM      3  O   UNL     1     -25.225  19.991 109.216  0.00  0.00    -0.301 OA
ENDROOT
TORSDOF 0
ENDMDL
MODEL 5
REMARK VINA RESULT:      -2.3      9.930     10.180
REMARK  Name = ACE
REMARK  1 active torsions:
REMARK  status: ('A' for Active; 'I' for Inactive)
REMARK    1  A    between atoms: C_1  and  C_3
REMARK                            x       y       z     vdW  Elec       q    Type
REMARK                         _______ _______ _______ _____ _____    ______ ____
ROOT
ATOM      1  C   UNL     1     -24.130  22.563 110.196  0.00  0.00    +0.220 C 
ATOM      2  C   UNL     1     -25.419  22.958 109.522  0.00  0.00    +0.082 C 
ATOM      3  O   UNL     1     -23.864  21.396 110.353  0.00  0.00    -0.301 OA
ENDROOT
TORSDOF 0
ENDMDL
MODEL 6
REMARK VINA RESULT:      -2.3     11.729     11.918
REMARK  Name = ACE
REMARK  1 active torsions:
REMARK  status: ('A' for Active; 'I' for Inactive)
REMARK    1  A    between atoms: C_1  and  C_3
REMARK                            x       y       z     vdW  Elec       q    Type
REMARK                         _______ _______ _______ _____ _____    ______ ____
ROOT
ATOM      1  C   UNL     1     -25.057  20.972 108.664  0.00  0.00    +0.220 C 
ATOM      2  C   UNL     1     -25.625  21.178 107.282  0.00  0.00    +0.082 C 
ATOM      3  O   UNL     1     -25.262  19.937 109.252  0.00  0.00    -0.301 OA
ENDROOT
TORSDOF 0
ENDMDL
MODEL 7
REMARK VINA RESULT:      -2.2     15.533     15.621
REMARK  Name = ACE
REMARK  1 active torsions:
REMARK  status: ('A' for Active; 'I' for Inactive)
REMARK    1  A    between atoms: C_1  and  C_3
REMARK                            x       y       z     vdW  Elec       q    Type
REMARK                         _______ _______ _______ _____ _____    ______ ____
ROOT
ATOM      1  C   UNL     1     -28.105  18.258 106.026  0.00  0.00    +0.220 C 
ATOM      2  C   UNL     1     -28.204  17.433 107.284  0.00  0.00    +0.082 C 
ATOM      3  O   UNL     1     -27.249  19.103 105.925  0.00  0.00    -0.301 OA
ENDROOT
TORSDOF 0
ENDMDL
MODEL 8
REMARK VINA RESULT:      -2.1     13.580     13.766
REMARK  Name = ACE
REMARK  1 active torsions:
REMARK  status: ('A' for Active; 'I' for Inactive)
REMARK    1  A    between atoms: C_1  and  C_3
REMARK                            x       y       z     vdW  Elec       q    Type
REMARK                         _______ _______ _______ _____ _____    ______ ____
ROOT
ATOM      1  C   UNL     1     -26.313  20.713 106.001  0.00  0.00    +0.220 C 
ATOM      2  C   UNL     1     -25.624  21.124 107.278  0.00  0.00    +0.082 C 
ATOM      3  O   UNL     1     -26.879  19.648 105.937  0.00  0.00    -0.301 OA
ENDROOT
TORSDOF 0
ENDMDL
MODEL 9
REMARK VINA RESULT:      -2.0     14.201     14.318
REMARK  Name = ACE
REMARK  1 active torsions:
REMARK  status: ('A' for Active; 'I' for Inactive)
REMARK    1  A    between atoms: C_1  and  C_3
REMARK                            x       y       z     vdW  Elec       q    Type
REMARK                         _______ _______ _______ _____ _____    ______ ____
ROOT
ATOM      1  C   UNL     1     -27.499  17.296 112.366  0.00  0.00    +0.220 C 
ATOM      2  C   UNL     1     -28.338  16.403 111.487  0.00  0.00    +0.082 C 
ATOM      3  O   UNL     1     -27.910  17.635 113.449  0.00  0.00    -0.301 OA
ENDROOT
TORSDOF 0
ENDMDL
