MODEL 1
REMARK VINA RESULT:      -3.2      0.000      0.000
REMARK  Name = ACM
REMARK  1 active torsions:
REMARK  status: ('A' for Active; 'I' for Inactive)
REMARK    1  A    between atoms: C_1  and  C_4
REMARK                            x       y       z     vdW  Elec       q    Type
REMARK                         _______ _______ _______ _____ _____    ______ ____
ROOT
ATOM      1  C   UNL     1     -27.969  18.254 106.033  0.00  0.00    +0.207 C 
ATOM      2  C   UNL     1     -28.211  17.469 107.294  0.00  0.00    +0.109 C 
ATOM      3  N   UNL     1     -28.616  17.924 104.898  0.00  0.00    -0.330 N 
ATOM      4  H   UNL     1     -29.239  17.181 104.895  0.00  0.00    +0.145 HD
ATOM      5  H   UNL     1     -28.460  18.430 104.085  0.00  0.00    +0.145 HD
ATOM      6  O   UNL     1     -27.190  19.184 106.038  0.00  0.00    -0.276 OA
ENDROOT
TORSDOF 0
ENDMDL
MODEL 2
REMARK VINA RESULT:      -3.1      6.096      6.139
REMARK  Name = ACM
REMARK  1 active torsions:
REMARK  status: ('A' for Active; 'I' for Inactive)
REMARK    1  A    between atoms: C_1  and  C_4
REMARK                            x       y       z     vdW  Elec       q    Type
REMARK                         _______ _______ _______ _____ _____    ______ ____
ROOT
ATOM      1  C   UNL     1     -24.482  21.705 109.388  0.00  0.00    +0.207 C 
ATOM      2  C   UNL     1     -25.369  22.917 109.491  0.00  0.00    +0.109 C 
ATOM      3  N   UNL     1     -24.416  21.013 108.234  0.00  0.00    -0.330 N 
ATOM      4  H   UNL     1     -24.940  21.297 107.469  0.00  0.00    +0.145 HD
ATOM      5  H   UNL     1     -23.844  20.232 108.167  0.00  0.00    +0.145 HD
ATOM      6  O   UNL     1     -23.826  21.351 110.345  0.00  0.00    -0.276 OA
ENDROOT
TORSDOF 0
ENDMDL
MODEL 3
REMARK VINA RESULT:      -2.8      7.767      8.083
REMARK  Name = ACM
REMARK  1 active torsions:
REMARK  status: ('A' for Active; 'I' for Inactive)
REMARK    1  A    between atoms: C_1  and  C_4
REMARK                            x       y       z     vdW  Elec       q    Type
REMARK                         _______ _______ _______ _____ _____    ______ ____
ROOT
ATOM      1  C   UNL     1     -28.017  16.653 113.855  0.00  0.00    +0.207 C 
ATOM      2  C   UNL     1     -27.705  17.088 112.447  0.00  0.00    +0.109 C 
ATOM      3  N   UNL     1     -28.534  15.430 114.084  0.00  0.00    -0.330 N 
ATOM      4  H   UNL     1     -28.705  14.830 113.341  0.00  0.00    +0.145 HD
ATOM      5  H   UNL     1     -28.736  15.150 114.990  0.00  0.00    +0.145 HD
ATOM      6  O   UNL     1     -27.803  17.404 114.782  0.00  0.00    -0.276 OA
ENDROOT
TORSDOF 0
ENDMDL
MODEL 4
REMARK VINA RESULT:      -2.8     21.666     21.691
REMARK  Name = ACM
REMARK  1 active torsions:
REMARK  status: ('A' for Active; 'I' for Inactive)
REMARK    1  A    between atoms: C_1  and  C_4
REMARK                            x       y       z     vdW  Elec       q    Type
REMARK                         _______ _______ _______ _____ _____    ______ ____
ROOT
ATOM      1  C   UNL     1     -12.348  21.714 120.487  0.00  0.00    +0.207 C 
ATOM      2  C   UNL     1     -11.624  22.410 119.366  0.00  0.00    +0.109 C 
ATOM      3  N   UNL     1     -11.698  20.820 121.258  0.00  0.00    -0.330 N 
ATOM      4  H   UNL     1     -10.763  20.625 121.089  0.00  0.00    +0.145 HD
ATOM      5  H   UNL     1     -12.165  20.372 121.980  0.00  0.00    +0.145 HD
ATOM      6  O   UNL     1     -13.517  21.959 120.697  0.00  0.00    -0.276 OA
ENDROOT
TORSDOF 0
ENDMDL
MODEL 5
REMARK VINA RESULT:      -2.7      8.135      8.250
REMARK  Name = ACM
REMARK  1 active torsions:
REMARK  status: ('A' for Active; 'I' for Inactive)
REMARK    1  A    between atoms: C_1  and  C_4
REMARK                            x       y       z     vdW  Elec       q    Type
REMARK                         _______ _______ _______ _____ _____    ______ ____
ROOT
ATOM      1  C   UNL     1     -30.037  15.862 113.529  0.00  0.00    +0.207 C 
ATOM      2  C   UNL     1     -31.030  15.459 112.471  0.00  0.00    +0.109 C 
ATOM      3  N   UNL     1     -28.942  15.108 113.749  0.00  0.00    -0.330 N 
ATOM      4  H   UNL     1     -28.794  14.305 113.225  0.00  0.00    +0.145 HD
ATOM      5  H   UNL     1     -28.303  15.368 114.430  0.00  0.00    +0.145 HD
ATOM      6  O   UNL     1     -30.223  16.866 114.183  0.00  0.00    -0.276 OA
ENDROOT
TORSDOF 0
ENDMDL
MODEL 6
REMARK VINA RESULT:      -2.7      7.409      7.498
REMARK  Name = ACM
REMARK  1 active torsions:
REMARK  status: ('A' for Active; 'I' for Inactive)
REMARK    1  A    between atoms: C_1  and  C_4
REMARK                            x       y       z     vdW  Elec       q    Type
REMARK                         _______ _______ _______ _____ _____    ______ ____
ROOT
ATOM      1  C   UNL     1     -29.620  14.295 111.950  0.00  0.00    +0.207 C 
ATOM      2  C   UNL     1     -30.361  15.327 112.758  0.00  0.00    +0.109 C 
ATOM      3  N   UNL     1     -28.718  13.491 112.546  0.00  0.00    -0.330 N 
ATOM      4  H   UNL     1     -28.546  13.578 113.496  0.00  0.00    +0.145 HD
ATOM      5  H   UNL     1     -28.241  12.827 112.025  0.00  0.00    +0.145 HD
ATOM      6  O   UNL     1     -29.835  14.188 110.761  0.00  0.00    -0.276 OA
ENDROOT
TORSDOF 0
ENDMDL
MODEL 7
REMARK VINA RESULT:      -2.7     20.190     20.258
REMARK  Name = ACM
REMARK  1 active torsions:
REMARK  status: ('A' for Active; 'I' for Inactive)
REMARK    1  A    between atoms: C_1  and  C_4
REMARK                            x       y       z     vdW  Elec       q    Type
REMARK                         _______ _______ _______ _____ _____    ______ ____
ROOT
ATOM      1  C   UNL     1     -11.596  22.567 117.098  0.00  0.00    +0.207 C 
ATOM      2  C   UNL     1     -11.711  22.392 118.589  0.00  0.00    +0.109 C 
ATOM      3  N   UNL     1     -12.703  22.761 116.355  0.00  0.00    -0.330 N 
ATOM      4  H   UNL     1     -13.574  22.788 116.780  0.00  0.00    +0.145 HD
ATOM      5  H   UNL     1     -12.628  22.875 115.394  0.00  0.00    +0.145 HD
ATOM      6  O   UNL     1     -10.506  22.534 116.567  0.00  0.00    -0.276 OA
ENDROOT
TORSDOF 0
ENDMDL
MODEL 8
REMARK VINA RESULT:      -2.7      8.232      8.344
REMARK  Name = ACM
REMARK  1 active torsions:
REMARK  status: ('A' for Active; 'I' for Inactive)
REMARK    1  A    between atoms: C_1  and  C_4
REMARK                            x       y       z     vdW  Elec       q    Type
REMARK                         _______ _______ _______ _____ _____    ______ ____
ROOT
ATOM      1  C   UNL     1     -27.620  16.419 114.067  0.00  0.00    +0.207 C 
ATOM      2  C   UNL     1     -26.174  16.050 114.262  0.00  0.00    +0.109 C 
ATOM      3  N   UNL     1     -28.579  15.480 114.187  0.00  0.00    -0.330 N 
ATOM      4  H   UNL     1     -28.336  14.565 114.399  0.00  0.00    +0.145 HD
ATOM      5  H   UNL     1     -29.511  15.719 114.061  0.00  0.00    +0.145 HD
ATOM      6  O   UNL     1     -27.923  17.564 113.802  0.00  0.00    -0.276 OA
ENDROOT
TORSDOF 0
ENDMDL
MODEL 9
REMARK VINA RESULT:      -2.6     10.037     10.300
REMARK  Name = ACM
REMARK  1 active torsions:
REMARK  status: ('A' for Active; 'I' for Inactive)
REMARK    1  A    between atoms: C_1  and  C_4
REMARK                            x       y       z     vdW  Elec       q    Type
REMARK                         _______ _______ _______ _____ _____    ______ ____
ROOT
ATOM      1  C   UNL     1     -27.063  16.882 116.067  0.00  0.00    +0.207 C 
ATOM      2  C   UNL     1     -26.388  17.717 117.123  0.00  0.00    +0.109 C 
ATOM      3  N   UNL     1     -27.042  15.538 116.154  0.00  0.00    -0.330 N 
ATOM      4  H   UNL     1     -26.592  15.108 116.897  0.00  0.00    +0.145 HD
ATOM      5  H   UNL     1     -27.477  15.001 115.474  0.00  0.00    +0.145 HD
ATOM      6  O   UNL     1     -27.626  17.421 115.138  0.00  0.00    -0.276 OA
ENDROOT
TORSDOF 0
ENDMDL
