MODEL 1
REMARK VINA RESULT:      -3.0      0.000      0.000
REMARK  Name = ACN
REMARK  2 active torsions:
REMARK  status: ('A' for Active; 'I' for Inactive)
REMARK    1  A    between atoms: C_1  and  C_3
REMARK    2  A    between atoms: C_1  and  C_4
REMARK                            x       y       z     vdW  Elec       q    Type
REMARK                         _______ _______ _______ _____ _____    ______ ____
ROOT
ATOM      1  C   UNL     1     -25.049  20.956 108.792  0.00  0.00    +0.127 C 
ATOM      2  C   UNL     1     -25.534  21.223 107.391  0.00  0.00    +0.085 C 
ATOM      3  C   UNL     1     -24.303  22.025 109.548  0.00  0.00    +0.085 C 
ATOM      4  O   UNL     1     -25.253  19.883 109.307  0.00  0.00    -0.298 OA
ENDROOT
TORSDOF 0
ENDMDL
MODEL 2
REMARK VINA RESULT:      -3.0      0.002      1.846
REMARK  Name = ACN
REMARK  2 active torsions:
REMARK  status: ('A' for Active; 'I' for Inactive)
REMARK    1  A    between atoms: C_1  and  C_3
REMARK    2  A    between atoms: C_1  and  C_4
REMARK                            x       y       z     vdW  Elec       q    Type
REMARK                         _______ _______ _______ _____ _____    ______ ____
ROOT
ATOM      1  C   UNL     1     -25.046  20.955 108.791  0.00  0.00    +0.127 C 
ATOM      2  C   UNL     1     -24.304  22.026 109.548  0.00  0.00    +0.085 C 
ATOM      3  C   UNL     1     -25.535  21.223 107.391  0.00  0.00    +0.085 C 
ATOM      4  O   UNL     1     -25.253  19.883 109.308  0.00  0.00    -0.298 OA
ENDROOT
TORSDOF 0
ENDMDL
MODEL 3
REMARK VINA RESULT:      -2.9      1.401      2.176
REMARK  Name = ACN
REMARK  2 active torsions:
REMARK  status: ('A' for Active; 'I' for Inactive)
REMARK    1  A    between atoms: C_1  and  C_3
REMARK    2  A    between atoms: C_1  and  C_4
REMARK                            x       y       z     vdW  Elec       q    Type
REMARK                         _______ _______ _______ _____ _____    ______ ____
ROOT
ATOM      1  C   UNL     1     -24.617  21.831 109.460  0.00  0.00    +0.127 C 
ATOM      2  C   UNL     1     -25.231  23.187 109.690  0.00  0.00    +0.085 C 
ATOM      3  C   UNL     1     -24.977  21.040 108.229  0.00  0.00    +0.085 C 
ATOM      4  O   UNL     1     -23.839  21.376 110.264  0.00  0.00    -0.298 OA
ENDROOT
TORSDOF 0
ENDMDL
MODEL 4
REMARK VINA RESULT:      -2.9      9.882     10.285
REMARK  Name = ACN
REMARK  2 active torsions:
REMARK  status: ('A' for Active; 'I' for Inactive)
REMARK    1  A    between atoms: C_1  and  C_3
REMARK    2  A    between atoms: C_1  and  C_4
REMARK                            x       y       z     vdW  Elec       q    Type
REMARK                         _______ _______ _______ _____ _____    ______ ____
ROOT
ATOM      1  C   UNL     1     -14.957  19.819 109.360  0.00  0.00    +0.127 C 
ATOM      2  C   UNL     1     -16.257  19.058 109.416  0.00  0.00    +0.085 C 
ATOM      3  C   UNL     1     -14.240  19.990 108.046  0.00  0.00    +0.085 C 
ATOM      4  O   UNL     1     -14.488  20.288 110.369  0.00  0.00    -0.298 OA
ENDROOT
TORSDOF 0
ENDMDL
MODEL 5
REMARK VINA RESULT:      -2.9      9.887     10.297
REMARK  Name = ACN
REMARK  2 active torsions:
REMARK  status: ('A' for Active; 'I' for Inactive)
REMARK    1  A    between atoms: C_1  and  C_3
REMARK    2  A    between atoms: C_1  and  C_4
REMARK                            x       y       z     vdW  Elec       q    Type
REMARK                         _______ _______ _______ _____ _____    ______ ____
ROOT
ATOM      1  C   UNL     1     -14.950  19.822 109.359  0.00  0.00    +0.127 C 
ATOM      2  C   UNL     1     -14.241  20.004 108.042  0.00  0.00    +0.085 C 
ATOM      3  C   UNL     1     -16.247  19.057 109.417  0.00  0.00    +0.085 C 
ATOM      4  O   UNL     1     -14.481  20.293 110.367  0.00  0.00    -0.298 OA
ENDROOT
TORSDOF 0
ENDMDL
MODEL 6
REMARK VINA RESULT:      -2.6      8.751      9.101
REMARK  Name = ACN
REMARK  2 active torsions:
REMARK  status: ('A' for Active; 'I' for Inactive)
REMARK    1  A    between atoms: C_1  and  C_3
REMARK    2  A    between atoms: C_1  and  C_4
REMARK                            x       y       z     vdW  Elec       q    Type
REMARK                         _______ _______ _______ _____ _____    ______ ____
ROOT
ATOM      1  C   UNL     1     -30.603  15.821 113.272  0.00  0.00    +0.127 C 
ATOM      2  C   UNL     1     -29.545  14.866 112.784  0.00  0.00    +0.085 C 
ATOM      3  C   UNL     1     -32.021  15.689 112.783  0.00  0.00    +0.085 C 
ATOM      4  O   UNL     1     -30.312  16.695 114.053  0.00  0.00    -0.298 OA
ENDROOT
TORSDOF 0
ENDMDL
MODEL 7
REMARK VINA RESULT:      -2.5      6.779      7.202
REMARK  Name = ACN
REMARK  2 active torsions:
REMARK  status: ('A' for Active; 'I' for Inactive)
REMARK    1  A    between atoms: C_1  and  C_3
REMARK    2  A    between atoms: C_1  and  C_4
REMARK                            x       y       z     vdW  Elec       q    Type
REMARK                         _______ _______ _______ _____ _____    ______ ____
ROOT
ATOM      1  C   UNL     1     -28.195  16.870 113.408  0.00  0.00    +0.127 C 
ATOM      2  C   UNL     1     -27.548  17.259 112.104  0.00  0.00    +0.085 C 
ATOM      3  C   UNL     1     -29.249  15.793 113.436  0.00  0.00    +0.085 C 
ATOM      4  O   UNL     1     -27.872  17.424 114.432  0.00  0.00    -0.298 OA
ENDROOT
TORSDOF 0
ENDMDL
MODEL 8
REMARK VINA RESULT:      -2.5      8.511      8.820
REMARK  Name = ACN
REMARK  2 active torsions:
REMARK  status: ('A' for Active; 'I' for Inactive)
REMARK    1  A    between atoms: C_1  and  C_3
REMARK    2  A    between atoms: C_1  and  C_4
REMARK                            x       y       z     vdW  Elec       q    Type
REMARK                         _______ _______ _______ _____ _____    ______ ____
ROOT
ATOM      1  C   UNL     1     -30.292  15.296 112.839  0.00  0.00    +0.127 C 
ATOM      2  C   UNL     1     -31.737  15.719 112.788  0.00  0.00    +0.085 C 
ATOM      3  C   UNL     1     -29.264  16.197 113.471  0.00  0.00    +0.085 C 
ATOM      4  O   UNL     1     -29.957  14.235 112.368  0.00  0.00    -0.298 OA
ENDROOT
TORSDOF 0
ENDMDL
MODEL 9
REMARK VINA RESULT:      -2.5      6.100      6.659
REMARK  Name = ACN
REMARK  2 active torsions:
REMARK  status: ('A' for Active; 'I' for Inactive)
REMARK    1  A    between atoms: C_1  and  C_3
REMARK    2  A    between atoms: C_1  and  C_4
REMARK                            x       y       z     vdW  Elec       q    Type
REMARK                         _______ _______ _______ _____ _____    ______ ____
ROOT
ATOM      1  C   UNL     1     -27.654  16.776 112.504  0.00  0.00    +0.127 C 
ATOM      2  C   UNL     1     -27.146  15.618 113.322  0.00  0.00    +0.085 C 
ATOM      3  C   UNL     1     -28.091  16.559 111.078  0.00  0.00    +0.085 C 
ATOM      4  O   UNL     1     -27.708  17.881 112.990  0.00  0.00    -0.298 OA
ENDROOT
TORSDOF 0
ENDMDL
