MODEL 1
REMARK VINA RESULT:      -3.6      0.000      0.000
REMARK  Name = BNZ
REMARK  0 active torsions:
REMARK  status: ('A' for Active; 'I' for Inactive)
REMARK                            x       y       z     vdW  Elec       q    Type
REMARK                         _______ _______ _______ _____ _____    ______ ____
ROOT
ATOM      1  C   UNL     1     -28.903  16.116 112.004  0.00  0.00    +0.000 A 
ATOM      2  C   UNL     1     -29.727  15.883 110.920  0.00  0.00    +0.000 A 
ATOM      3  C   UNL     1     -31.072  15.627 111.116  0.00  0.00    +0.000 A 
ATOM      4  C   UNL     1     -31.589  15.601 112.397  0.00  0.00    +0.000 A 
ATOM      5  C   UNL     1     -30.765  15.833 113.481  0.00  0.00    +0.000 A 
ATOM      6  C   UNL     1     -29.421  16.091 113.285  0.00  0.00    +0.000 A 
ENDROOT
TORSDOF 0
ENDMDL
MODEL 2
REMARK VINA RESULT:      -3.6      0.158      1.960
REMARK  Name = BNZ
REMARK  0 active torsions:
REMARK  status: ('A' for Active; 'I' for Inactive)
REMARK                            x       y       z     vdW  Elec       q    Type
REMARK                         _______ _______ _______ _____ _____    ______ ____
ROOT
ATOM      1  C   UNL     1     -29.921  15.826 110.881  0.00  0.00    +0.000 A 
ATOM      2  C   UNL     1     -29.038  16.036 111.922  0.00  0.00    +0.000 A 
ATOM      3  C   UNL     1     -29.495  16.043 113.227  0.00  0.00    +0.000 A 
ATOM      4  C   UNL     1     -30.838  15.843 113.488  0.00  0.00    +0.000 A 
ATOM      5  C   UNL     1     -31.721  15.633 112.447  0.00  0.00    +0.000 A 
ATOM      6  C   UNL     1     -31.263  15.624 111.143  0.00  0.00    +0.000 A 
ENDROOT
TORSDOF 0
ENDMDL
MODEL 3
REMARK VINA RESULT:      -3.6      0.091      1.956
REMARK  Name = BNZ
REMARK  0 active torsions:
REMARK  status: ('A' for Active; 'I' for Inactive)
REMARK                            x       y       z     vdW  Elec       q    Type
REMARK                         _______ _______ _______ _____ _____    ______ ____
ROOT
ATOM      1  C   UNL     1     -30.730  15.829 113.445  0.00  0.00    +0.000 A 
ATOM      2  C   UNL     1     -31.608  15.636 112.396  0.00  0.00    +0.000 A 
ATOM      3  C   UNL     1     -31.144  15.656 111.094  0.00  0.00    +0.000 A 
ATOM      4  C   UNL     1     -29.802  15.872 110.842  0.00  0.00    +0.000 A 
ATOM      5  C   UNL     1     -28.924  16.066 111.891  0.00  0.00    +0.000 A 
ATOM      6  C   UNL     1     -29.388  16.045 113.193  0.00  0.00    +0.000 A 
ENDROOT
TORSDOF 0
ENDMDL
MODEL 4
REMARK VINA RESULT:      -3.6      0.406      2.755
REMARK  Name = BNZ
REMARK  0 active torsions:
REMARK  status: ('A' for Active; 'I' for Inactive)
REMARK                            x       y       z     vdW  Elec       q    Type
REMARK                         _______ _______ _______ _____ _____    ______ ____
ROOT
ATOM      1  C   UNL     1     -31.762  15.715 112.712  0.00  0.00    +0.000 A 
ATOM      2  C   UNL     1     -30.698  15.906 113.573  0.00  0.00    +0.000 A 
ATOM      3  C   UNL     1     -29.417  16.042 113.070  0.00  0.00    +0.000 A 
ATOM      4  C   UNL     1     -29.201  15.982 111.706  0.00  0.00    +0.000 A 
ATOM      5  C   UNL     1     -30.265  15.790 110.846  0.00  0.00    +0.000 A 
ATOM      6  C   UNL     1     -31.546  15.656 111.349  0.00  0.00    +0.000 A 
ENDROOT
TORSDOF 0
ENDMDL
MODEL 5
REMARK VINA RESULT:      -3.5      0.476      1.655
REMARK  Name = BNZ
REMARK  0 active torsions:
REMARK  status: ('A' for Active; 'I' for Inactive)
REMARK                            x       y       z     vdW  Elec       q    Type
REMARK                         _______ _______ _______ _____ _____    ______ ____
ROOT
ATOM      1  C   UNL     1     -29.967  15.827 113.319  0.00  0.00    +0.000 A 
ATOM      2  C   UNL     1     -29.213  15.915 112.164  0.00  0.00    +0.000 A 
ATOM      3  C   UNL     1     -29.835  15.886 110.929  0.00  0.00    +0.000 A 
ATOM      4  C   UNL     1     -31.209  15.765 110.851  0.00  0.00    +0.000 A 
ATOM      5  C   UNL     1     -31.963  15.676 112.005  0.00  0.00    +0.000 A 
ATOM      6  C   UNL     1     -31.341  15.707 113.240  0.00  0.00    +0.000 A 
ENDROOT
TORSDOF 0
ENDMDL
MODEL 6
REMARK VINA RESULT:      -3.3      6.737      7.959
REMARK  Name = BNZ
REMARK  0 active torsions:
REMARK  status: ('A' for Active; 'I' for Inactive)
REMARK                            x       y       z     vdW  Elec       q    Type
REMARK                         _______ _______ _______ _____ _____    ______ ____
ROOT
ATOM      1  C   UNL     1     -24.587  15.001 118.924  0.00  0.00    +0.000 A 
ATOM      2  C   UNL     1     -23.910  16.117 118.471  0.00  0.00    +0.000 A 
ATOM      3  C   UNL     1     -24.531  17.000 117.607  0.00  0.00    +0.000 A 
ATOM      4  C   UNL     1     -25.829  16.764 117.195  0.00  0.00    +0.000 A 
ATOM      5  C   UNL     1     -26.507  15.649 117.648  0.00  0.00    +0.000 A 
ATOM      6  C   UNL     1     -25.886  14.766 118.513  0.00  0.00    +0.000 A 
ENDROOT
TORSDOF 0
ENDMDL
MODEL 7
REMARK VINA RESULT:      -3.3      6.764      8.156
REMARK  Name = BNZ
REMARK  0 active torsions:
REMARK  status: ('A' for Active; 'I' for Inactive)
REMARK                            x       y       z     vdW  Elec       q    Type
REMARK                         _______ _______ _______ _____ _____    ______ ____
ROOT
ATOM      1  C   UNL     1     -26.493  15.567 117.699  0.00  0.00    +0.000 A 
ATOM      2  C   UNL     1     -25.813  14.730 118.563  0.00  0.00    +0.000 A 
ATOM      3  C   UNL     1     -24.519  15.032 118.944  0.00  0.00    +0.000 A 
ATOM      4  C   UNL     1     -23.904  16.171 118.457  0.00  0.00    +0.000 A 
ATOM      5  C   UNL     1     -24.584  17.007 117.593  0.00  0.00    +0.000 A 
ATOM      6  C   UNL     1     -25.879  16.706 117.213  0.00  0.00    +0.000 A 
ENDROOT
TORSDOF 0
ENDMDL
MODEL 8
REMARK VINA RESULT:      -3.3      6.698      7.914
REMARK  Name = BNZ
REMARK  0 active torsions:
REMARK  status: ('A' for Active; 'I' for Inactive)
REMARK                            x       y       z     vdW  Elec       q    Type
REMARK                         _______ _______ _______ _____ _____    ______ ____
ROOT
ATOM      1  C   UNL     1     -24.608  17.038 117.606  0.00  0.00    +0.000 A 
ATOM      2  C   UNL     1     -23.964  16.148 118.444  0.00  0.00    +0.000 A 
ATOM      3  C   UNL     1     -24.616  15.007 118.875  0.00  0.00    +0.000 A 
ATOM      4  C   UNL     1     -25.915  14.760 118.471  0.00  0.00    +0.000 A 
ATOM      5  C   UNL     1     -26.560  15.651 117.634  0.00  0.00    +0.000 A 
ATOM      6  C   UNL     1     -25.906  16.790 117.202  0.00  0.00    +0.000 A 
ENDROOT
TORSDOF 0
ENDMDL
MODEL 9
REMARK VINA RESULT:      -3.3      7.337      8.602
REMARK  Name = BNZ
REMARK  0 active torsions:
REMARK  status: ('A' for Active; 'I' for Inactive)
REMARK                            x       y       z     vdW  Elec       q    Type
REMARK                         _______ _______ _______ _____ _____    ______ ____
ROOT
ATOM      1  C   UNL     1     -23.343  16.773 118.518  0.00  0.00    +0.000 A 
ATOM      2  C   UNL     1     -24.382  17.008 117.638  0.00  0.00    +0.000 A 
ATOM      3  C   UNL     1     -25.437  16.117 117.560  0.00  0.00    +0.000 A 
ATOM      4  C   UNL     1     -25.450  14.991 118.361  0.00  0.00    +0.000 A 
ATOM      5  C   UNL     1     -24.411  14.756 119.241  0.00  0.00    +0.000 A 
ATOM      6  C   UNL     1     -23.357  15.647 119.320  0.00  0.00    +0.000 A 
ENDROOT
TORSDOF 0
ENDMDL
