MODEL 1
REMARK VINA RESULT:      -2.3      0.000      0.000
REMARK  Name = CCN
REMARK  1 active torsions:
REMARK  status: ('A' for Active; 'I' for Inactive)
REMARK    1  A    between atoms: C_2  and  C_3
REMARK                            x       y       z     vdW  Elec       q    Type
REMARK                         _______ _______ _______ _____ _____    ______ ____
ROOT
ATOM      1  N   UNL     1     -13.071  16.670 103.653  0.00  0.00    -0.197 NA
ATOM      2  C   UNL     1     -12.728  16.330 102.625  0.00  0.00    +0.059 C 
ATOM      3  C   UNL     1     -12.285  15.889 101.292  0.00  0.00    +0.138 C 
ENDROOT
TORSDOF 0
ENDMDL
MODEL 2
REMARK VINA RESULT:      -2.2     15.038     15.403
REMARK  Name = CCN
REMARK  1 active torsions:
REMARK  status: ('A' for Active; 'I' for Inactive)
REMARK    1  A    between atoms: C_2  and  C_3
REMARK                            x       y       z     vdW  Elec       q    Type
REMARK                         _______ _______ _______ _____ _____    ______ ____
ROOT
ATOM      1  N   UNL     1     -23.510  22.095 110.225  0.00  0.00    -0.197 NA
ATOM      2  C   UNL     1     -24.499  22.534 109.880  0.00  0.00    +0.059 C 
ATOM      3  C   UNL     1     -25.781  23.104 109.434  0.00  0.00    +0.138 C 
ENDROOT
TORSDOF 0
ENDMDL
MODEL 3
REMARK VINA RESULT:      -2.2     14.530     14.697
REMARK  Name = CCN
REMARK  1 active torsions:
REMARK  status: ('A' for Active; 'I' for Inactive)
REMARK    1  A    between atoms: C_2  and  C_3
REMARK                            x       y       z     vdW  Elec       q    Type
REMARK                         _______ _______ _______ _____ _____    ______ ____
ROOT
ATOM      1  N   UNL     1     -25.154  20.675 108.076  0.00  0.00    -0.197 NA
ATOM      2  C   UNL     1     -24.748  21.396 108.854  0.00  0.00    +0.059 C 
ATOM      3  C   UNL     1     -24.221  22.331 109.862  0.00  0.00    +0.138 C 
ENDROOT
TORSDOF 0
ENDMDL
MODEL 4
REMARK VINA RESULT:      -2.1     17.664     17.811
REMARK  Name = CCN
REMARK  1 active torsions:
REMARK  status: ('A' for Active; 'I' for Inactive)
REMARK    1  A    between atoms: C_2  and  C_3
REMARK                            x       y       z     vdW  Elec       q    Type
REMARK                         _______ _______ _______ _____ _____    ______ ____
ROOT
ATOM      1  N   UNL     1     -27.606  17.685 112.977  0.00  0.00    -0.197 NA
ATOM      2  C   UNL     1     -27.789  17.140 111.997  0.00  0.00    +0.059 C 
ATOM      3  C   UNL     1     -28.025  16.433 110.728  0.00  0.00    +0.138 C 
ENDROOT
TORSDOF 0
ENDMDL
MODEL 5
REMARK VINA RESULT:      -2.0     14.636     14.636
REMARK  Name = CCN
REMARK  1 active torsions:
REMARK  status: ('A' for Active; 'I' for Inactive)
REMARK    1  A    between atoms: C_2  and  C_3
REMARK                            x       y       z     vdW  Elec       q    Type
REMARK                         _______ _______ _______ _____ _____    ______ ____
ROOT
ATOM      1  N   UNL     1     -24.939  20.210 109.665  0.00  0.00    -0.197 NA
ATOM      2  C   UNL     1     -25.213  20.665 108.661  0.00  0.00    +0.059 C 
ATOM      3  C   UNL     1     -25.568  21.254 107.359  0.00  0.00    +0.138 C 
ENDROOT
TORSDOF 0
ENDMDL
MODEL 6
REMARK VINA RESULT:      -2.0     19.555     19.747
REMARK  Name = CCN
REMARK  1 active torsions:
REMARK  status: ('A' for Active; 'I' for Inactive)
REMARK    1  A    between atoms: C_2  and  C_3
REMARK                            x       y       z     vdW  Elec       q    Type
REMARK                         _______ _______ _______ _____ _____    ______ ____
ROOT
ATOM      1  N   UNL     1     -14.826  21.964 121.886  0.00  0.00    -0.197 NA
ATOM      2  C   UNL     1     -13.796  22.034 121.414  0.00  0.00    +0.059 C 
ATOM      3  C   UNL     1     -12.460  22.124 120.802  0.00  0.00    +0.138 C 
ENDROOT
TORSDOF 0
ENDMDL
MODEL 7
REMARK VINA RESULT:      -2.0      1.738      2.154
REMARK  Name = CCN
REMARK  1 active torsions:
REMARK  status: ('A' for Active; 'I' for Inactive)
REMARK    1  A    between atoms: C_2  and  C_3
REMARK                            x       y       z     vdW  Elec       q    Type
REMARK                         _______ _______ _______ _____ _____    ______ ____
ROOT
ATOM      1  N   UNL     1     -11.922  15.750 101.276  0.00  0.00    -0.197 NA
ATOM      2  C   UNL     1     -12.447  16.072 102.231  0.00  0.00    +0.059 C 
ATOM      3  C   UNL     1     -13.127  16.488 103.468  0.00  0.00    +0.138 C 
ENDROOT
TORSDOF 0
ENDMDL
MODEL 8
REMARK VINA RESULT:      -2.0     18.662     18.949
REMARK  Name = CCN
REMARK  1 active torsions:
REMARK  status: ('A' for Active; 'I' for Inactive)
REMARK    1  A    between atoms: C_2  and  C_3
REMARK                            x       y       z     vdW  Elec       q    Type
REMARK                         _______ _______ _______ _____ _____    ______ ____
ROOT
ATOM      1  N   UNL     1     -27.608  17.681 112.924  0.00  0.00    -0.197 NA
ATOM      2  C   UNL     1     -28.243  16.761 113.122  0.00  0.00    +0.059 C 
ATOM      3  C   UNL     1     -29.067  15.568 113.379  0.00  0.00    +0.138 C 
ENDROOT
TORSDOF 0
ENDMDL
MODEL 9
REMARK VINA RESULT:      -1.9     16.228     16.671
REMARK  Name = CCN
REMARK  1 active torsions:
REMARK  status: ('A' for Active; 'I' for Inactive)
REMARK    1  A    between atoms: C_2  and  C_3
REMARK                            x       y       z     vdW  Elec       q    Type
REMARK                         _______ _______ _______ _____ _____    ______ ____
ROOT
ATOM      1  N   UNL     1     -11.623  22.874 116.601  0.00  0.00    -0.197 NA
ATOM      2  C   UNL     1     -11.695  22.589 117.698  0.00  0.00    +0.059 C 
ATOM      3  C   UNL     1     -11.789  22.218 119.119  0.00  0.00    +0.138 C 
ENDROOT
TORSDOF 0
ENDMDL
