MODEL 1
REMARK VINA RESULT:      -3.5      0.000      0.000
REMARK  Name = CHX
REMARK  0 active torsions:
REMARK  status: ('A' for Active; 'I' for Inactive)
REMARK                            x       y       z     vdW  Elec       q    Type
REMARK                         _______ _______ _______ _____ _____    ______ ____
ROOT
ATOM      1  C   UNL     1     -31.805  15.645 112.843  0.00  0.00    -0.000 C 
ATOM      2  C   UNL     1     -31.520  15.607 111.340  0.00  0.00    -0.000 C 
ATOM      3  C   UNL     1     -30.319  14.699 111.072  0.00  0.00    -0.000 C 
ATOM      4  C   UNL     1     -29.095  15.243 111.810  0.00  0.00    -0.000 C 
ATOM      5  C   UNL     1     -29.379  15.281 113.312  0.00  0.00    -0.000 C 
ATOM      6  C   UNL     1     -30.580  16.189 113.580  0.00  0.00    -0.000 C 
ENDROOT
TORSDOF 0
ENDMDL
MODEL 2
REMARK VINA RESULT:      -3.5      0.066      2.102
REMARK  Name = CHX
REMARK  0 active torsions:
REMARK  status: ('A' for Active; 'I' for Inactive)
REMARK                            x       y       z     vdW  Elec       q    Type
REMARK                         _______ _______ _______ _____ _____    ______ ____
ROOT
ATOM      1  C   UNL     1     -29.146  15.305 111.793  0.00  0.00    -0.000 C 
ATOM      2  C   UNL     1     -30.376  14.758 111.067  0.00  0.00    -0.000 C 
ATOM      3  C   UNL     1     -31.583  15.647 111.370  0.00  0.00    -0.000 C 
ATOM      4  C   UNL     1     -31.843  15.657 112.878  0.00  0.00    -0.000 C 
ATOM      5  C   UNL     1     -30.613  16.203 113.604  0.00  0.00    -0.000 C 
ATOM      6  C   UNL     1     -29.406  15.315 113.301  0.00  0.00    -0.000 C 
ENDROOT
TORSDOF 0
ENDMDL
MODEL 3
REMARK VINA RESULT:      -3.5      0.056      2.102
REMARK  Name = CHX
REMARK  0 active torsions:
REMARK  status: ('A' for Active; 'I' for Inactive)
REMARK                            x       y       z     vdW  Elec       q    Type
REMARK                         _______ _______ _______ _____ _____    ______ ____
ROOT
ATOM      1  C   UNL     1     -30.560  16.209 113.578  0.00  0.00    -0.000 C 
ATOM      2  C   UNL     1     -29.348  15.307 113.343  0.00  0.00    -0.000 C 
ATOM      3  C   UNL     1     -29.052  15.232 111.844  0.00  0.00    -0.000 C 
ATOM      4  C   UNL     1     -30.266  14.655 111.114  0.00  0.00    -0.000 C 
ATOM      5  C   UNL     1     -31.479  15.557 111.350  0.00  0.00    -0.000 C 
ATOM      6  C   UNL     1     -31.774  15.633 112.848  0.00  0.00    -0.000 C 
ENDROOT
TORSDOF 0
ENDMDL
MODEL 4
REMARK VINA RESULT:      -3.5      0.125      2.460
REMARK  Name = CHX
REMARK  0 active torsions:
REMARK  status: ('A' for Active; 'I' for Inactive)
REMARK                            x       y       z     vdW  Elec       q    Type
REMARK                         _______ _______ _______ _____ _____    ______ ____
ROOT
ATOM      1  C   UNL     1     -30.471  14.767 111.010  0.00  0.00    -0.000 C 
ATOM      2  C   UNL     1     -29.208  15.268 111.711  0.00  0.00    -0.000 C 
ATOM      3  C   UNL     1     -29.426  15.251 113.225  0.00  0.00    -0.000 C 
ATOM      4  C   UNL     1     -30.602  16.161 113.581  0.00  0.00    -0.000 C 
ATOM      5  C   UNL     1     -31.865  15.661 112.879  0.00  0.00    -0.000 C 
ATOM      6  C   UNL     1     -31.647  15.678 111.366  0.00  0.00    -0.000 C 
ENDROOT
TORSDOF 0
ENDMDL
MODEL 5
REMARK VINA RESULT:      -3.4      0.892      2.784
REMARK  Name = CHX
REMARK  0 active torsions:
REMARK  status: ('A' for Active; 'I' for Inactive)
REMARK                            x       y       z     vdW  Elec       q    Type
REMARK                         _______ _______ _______ _____ _____    ______ ____
ROOT
ATOM      1  C   UNL     1     -29.141  15.662 110.946  0.00  0.00    -0.000 C 
ATOM      2  C   UNL     1     -28.520  16.351 112.162  0.00  0.00    -0.000 C 
ATOM      3  C   UNL     1     -29.127  15.773 113.441  0.00  0.00    -0.000 C 
ATOM      4  C   UNL     1     -30.639  16.008 113.438  0.00  0.00    -0.000 C 
ATOM      5  C   UNL     1     -31.260  15.319 112.222  0.00  0.00    -0.000 C 
ATOM      6  C   UNL     1     -30.652  15.897 110.943  0.00  0.00    -0.000 C 
ENDROOT
TORSDOF 0
ENDMDL
MODEL 6
REMARK VINA RESULT:      -3.3      1.331      2.495
REMARK  Name = CHX
REMARK  0 active torsions:
REMARK  status: ('A' for Active; 'I' for Inactive)
REMARK                            x       y       z     vdW  Elec       q    Type
REMARK                         _______ _______ _______ _____ _____    ______ ____
ROOT
ATOM      1  C   UNL     1     -29.842  15.888 110.981  0.00  0.00    -0.000 C 
ATOM      2  C   UNL     1     -30.420  15.168 112.200  0.00  0.00    -0.000 C 
ATOM      3  C   UNL     1     -30.142  15.993 113.458  0.00  0.00    -0.000 C 
ATOM      4  C   UNL     1     -28.632  16.160 113.633  0.00  0.00    -0.000 C 
ATOM      5  C   UNL     1     -28.053  16.879 112.414  0.00  0.00    -0.000 C 
ATOM      6  C   UNL     1     -28.332  16.055 111.157  0.00  0.00    -0.000 C 
ENDROOT
TORSDOF 0
ENDMDL
MODEL 7
REMARK VINA RESULT:      -3.2      6.364      8.037
REMARK  Name = CHX
REMARK  0 active torsions:
REMARK  status: ('A' for Active; 'I' for Inactive)
REMARK                            x       y       z     vdW  Elec       q    Type
REMARK                         _______ _______ _______ _____ _____    ______ ____
ROOT
ATOM      1  C   UNL     1     -24.064  16.298 117.758  0.00  0.00    -0.000 C 
ATOM      2  C   UNL     1     -24.264  15.332 118.928  0.00  0.00    -0.000 C 
ATOM      3  C   UNL     1     -25.261  14.245 118.525  0.00  0.00    -0.000 C 
ATOM      4  C   UNL     1     -26.600  14.890 118.162  0.00  0.00    -0.000 C 
ATOM      5  C   UNL     1     -26.400  15.856 116.993  0.00  0.00    -0.000 C 
ATOM      6  C   UNL     1     -25.403  16.943 117.395  0.00  0.00    -0.000 C 
ENDROOT
TORSDOF 0
ENDMDL
MODEL 8
REMARK VINA RESULT:      -3.2      6.373      7.999
REMARK  Name = CHX
REMARK  0 active torsions:
REMARK  status: ('A' for Active; 'I' for Inactive)
REMARK                            x       y       z     vdW  Elec       q    Type
REMARK                         _______ _______ _______ _____ _____    ______ ____
ROOT
ATOM      1  C   UNL     1     -24.212  15.430 118.902  0.00  0.00    -0.000 C 
ATOM      2  C   UNL     1     -24.064  16.384 117.715  0.00  0.00    -0.000 C 
ATOM      3  C   UNL     1     -25.429  16.984 117.372  0.00  0.00    -0.000 C 
ATOM      4  C   UNL     1     -26.401  15.861 117.006  0.00  0.00    -0.000 C 
ATOM      5  C   UNL     1     -26.549  14.908 118.193  0.00  0.00    -0.000 C 
ATOM      6  C   UNL     1     -25.185  14.308 118.536  0.00  0.00    -0.000 C 
ENDROOT
TORSDOF 0
ENDMDL
MODEL 9
REMARK VINA RESULT:      -3.2      6.364      7.882
REMARK  Name = CHX
REMARK  0 active torsions:
REMARK  status: ('A' for Active; 'I' for Inactive)
REMARK                            x       y       z     vdW  Elec       q    Type
REMARK                         _______ _______ _______ _____ _____    ______ ____
ROOT
ATOM      1  C   UNL     1     -26.621  14.918 118.156  0.00  0.00    -0.000 C 
ATOM      2  C   UNL     1     -25.295  14.244 118.512  0.00  0.00    -0.000 C 
ATOM      3  C   UNL     1     -24.276  15.309 118.921  0.00  0.00    -0.000 C 
ATOM      4  C   UNL     1     -24.059  16.279 117.759  0.00  0.00    -0.000 C 
ATOM      5  C   UNL     1     -25.385  16.953 117.403  0.00  0.00    -0.000 C 
ATOM      6  C   UNL     1     -26.403  15.888 116.994  0.00  0.00    -0.000 C 
ENDROOT
TORSDOF 0
ENDMDL
