MODEL 1
REMARK VINA RESULT:      -4.6      0.000      0.000
REMARK  Name = HBX
REMARK  1 active torsions:
REMARK  status: ('A' for Active; 'I' for Inactive)
REMARK    1  A    between atoms: C_1  and  C_3
REMARK                            x       y       z     vdW  Elec       q    Type
REMARK                         _______ _______ _______ _____ _____    ______ ____
ROOT
ATOM      1  C   UNL     1     -29.373  16.094 113.047  0.00  0.00    +0.014 A 
ATOM      2  C   UNL     1     -29.213  15.977 111.663  0.00  0.00    +0.011 A 
ATOM      3  C   UNL     1     -30.308  15.719 110.865  0.00  0.00    +0.001 A 
ATOM      4  C   UNL     1     -31.565  15.587 111.431  0.00  0.00    +0.000 A 
ATOM      5  C   UNL     1     -31.732  15.707 112.799  0.00  0.00    +0.001 A 
ATOM      6  C   UNL     1     -30.646  15.959 113.611  0.00  0.00    +0.011 A 
ENDROOT
BRANCH   1   7
ATOM      7  C   UNL     1     -28.209  16.363 113.906  0.00  0.00    +0.258 C 
ATOM      8  O   UNL     1     -27.942  17.502 114.225  0.00  0.00    -0.296 OA
ENDBRANCH   1   7
TORSDOF 1
ENDMDL
MODEL 2
REMARK VINA RESULT:      -4.4      2.065      2.908
REMARK  Name = HBX
REMARK  1 active torsions:
REMARK  status: ('A' for Active; 'I' for Inactive)
REMARK    1  A    between atoms: C_1  and  C_3
REMARK                            x       y       z     vdW  Elec       q    Type
REMARK                         _______ _______ _______ _____ _____    ______ ____
ROOT
ATOM      1  C   UNL     1     -29.045  16.104 111.216  0.00  0.00    +0.014 A 
ATOM      2  C   UNL     1     -28.642  16.319 112.537  0.00  0.00    +0.011 A 
ATOM      3  C   UNL     1     -29.546  16.154 113.566  0.00  0.00    +0.001 A 
ATOM      4  C   UNL     1     -30.846  15.766 113.293  0.00  0.00    +0.000 A 
ATOM      5  C   UNL     1     -31.251  15.546 111.988  0.00  0.00    +0.001 A 
ATOM      6  C   UNL     1     -30.361  15.712 110.948  0.00  0.00    +0.011 A 
ENDROOT
BRANCH   1   7
ATOM      7  C   UNL     1     -28.089  16.284 110.112  0.00  0.00    +0.258 C 
ATOM      8  O   UNL     1     -28.488  16.589 109.008  0.00  0.00    -0.296 OA
ENDBRANCH   1   7
TORSDOF 1
ENDMDL
MODEL 3
REMARK VINA RESULT:      -4.3      9.509     10.839
REMARK  Name = HBX
REMARK  1 active torsions:
REMARK  status: ('A' for Active; 'I' for Inactive)
REMARK    1  A    between atoms: C_1  and  C_3
REMARK                            x       y       z     vdW  Elec       q    Type
REMARK                         _______ _______ _______ _____ _____    ______ ____
ROOT
ATOM      1  C   UNL     1     -19.444  18.409 115.887  0.00  0.00    +0.014 A 
ATOM      2  C   UNL     1     -20.487  18.194 114.981  0.00  0.00    +0.011 A 
ATOM      3  C   UNL     1     -21.252  17.050 115.073  0.00  0.00    +0.001 A 
ATOM      4  C   UNL     1     -20.995  16.121 116.067  0.00  0.00    +0.000 A 
ATOM      5  C   UNL     1     -19.968  16.329 116.971  0.00  0.00    +0.001 A 
ATOM      6  C   UNL     1     -19.191  17.465 116.888  0.00  0.00    +0.011 A 
ENDROOT
BRANCH   1   7
ATOM      7  C   UNL     1     -18.620  19.624 115.792  0.00  0.00    +0.258 C 
ATOM      8  O   UNL     1     -18.994  20.652 116.314  0.00  0.00    -0.296 OA
ENDBRANCH   1   7
TORSDOF 1
ENDMDL
MODEL 4
REMARK VINA RESULT:      -4.1      5.010      7.246
REMARK  Name = HBX
REMARK  1 active torsions:
REMARK  status: ('A' for Active; 'I' for Inactive)
REMARK    1  A    between atoms: C_1  and  C_3
REMARK                            x       y       z     vdW  Elec       q    Type
REMARK                         _______ _______ _______ _____ _____    ______ ____
ROOT
ATOM      1  C   UNL     1     -26.138  16.447 117.253  0.00  0.00    +0.014 A 
ATOM      2  C   UNL     1     -26.444  15.249 117.904  0.00  0.00    +0.011 A 
ATOM      3  C   UNL     1     -25.502  14.648 118.714  0.00  0.00    +0.001 A 
ATOM      4  C   UNL     1     -24.261  15.236 118.890  0.00  0.00    +0.000 A 
ATOM      5  C   UNL     1     -23.953  16.425 118.253  0.00  0.00    +0.001 A 
ATOM      6  C   UNL     1     -24.882  17.035 117.436  0.00  0.00    +0.011 A 
ENDROOT
BRANCH   1   7
ATOM      7  C   UNL     1     -27.135  17.091 116.383  0.00  0.00    +0.258 C 
ATOM      8  O   UNL     1     -26.910  17.223 115.198  0.00  0.00    -0.296 OA
ENDBRANCH   1   7
TORSDOF 1
ENDMDL
MODEL 5
REMARK VINA RESULT:      -4.1      5.035      7.151
REMARK  Name = HBX
REMARK  1 active torsions:
REMARK  status: ('A' for Active; 'I' for Inactive)
REMARK    1  A    between atoms: C_1  and  C_3
REMARK                            x       y       z     vdW  Elec       q    Type
REMARK                         _______ _______ _______ _____ _____    ______ ____
ROOT
ATOM      1  C   UNL     1     -26.118  16.453 117.264  0.00  0.00    +0.014 A 
ATOM      2  C   UNL     1     -24.853  17.020 117.448  0.00  0.00    +0.011 A 
ATOM      3  C   UNL     1     -23.938  16.402 118.276  0.00  0.00    +0.001 A 
ATOM      4  C   UNL     1     -24.267  15.218 118.914  0.00  0.00    +0.000 A 
ATOM      5  C   UNL     1     -25.514  14.648 118.731  0.00  0.00    +0.001 A 
ATOM      6  C   UNL     1     -26.442  15.256 117.912  0.00  0.00    +0.011 A 
ENDROOT
BRANCH   1   7
ATOM      7  C   UNL     1     -27.102  17.109 116.388  0.00  0.00    +0.258 C 
ATOM      8  O   UNL     1     -26.932  17.117 115.187  0.00  0.00    -0.296 OA
ENDBRANCH   1   7
TORSDOF 1
ENDMDL
MODEL 6
REMARK VINA RESULT:      -4.0      1.397      2.162
REMARK  Name = HBX
REMARK  1 active torsions:
REMARK  status: ('A' for Active; 'I' for Inactive)
REMARK    1  A    between atoms: C_1  and  C_3
REMARK                            x       y       z     vdW  Elec       q    Type
REMARK                         _______ _______ _______ _____ _____    ______ ____
ROOT
ATOM      1  C   UNL     1     -29.342  15.792 112.264  0.00  0.00    +0.014 A 
ATOM      2  C   UNL     1     -30.237  15.710 113.335  0.00  0.00    +0.011 A 
ATOM      3  C   UNL     1     -31.596  15.723 113.096  0.00  0.00    +0.001 A 
ATOM      4  C   UNL     1     -32.072  15.807 111.798  0.00  0.00    +0.000 A 
ATOM      5  C   UNL     1     -31.192  15.882 110.733  0.00  0.00    +0.001 A 
ATOM      6  C   UNL     1     -29.831  15.876 110.957  0.00  0.00    +0.011 A 
ENDROOT
BRANCH   1   7
ATOM      7  C   UNL     1     -27.891  15.784 112.512  0.00  0.00    +0.258 C 
ATOM      8  O   UNL     1     -27.283  14.735 112.519  0.00  0.00    -0.296 OA
ENDBRANCH   1   7
TORSDOF 1
ENDMDL
MODEL 7
REMARK VINA RESULT:      -4.0      2.255      3.819
REMARK  Name = HBX
REMARK  1 active torsions:
REMARK  status: ('A' for Active; 'I' for Inactive)
REMARK    1  A    between atoms: C_1  and  C_3
REMARK                            x       y       z     vdW  Elec       q    Type
REMARK                         _______ _______ _______ _____ _____    ______ ____
ROOT
ATOM      1  C   UNL     1     -29.426  15.652 111.983  0.00  0.00    +0.014 A 
ATOM      2  C   UNL     1     -29.333  15.664 113.378  0.00  0.00    +0.011 A 
ATOM      3  C   UNL     1     -28.356  16.419 113.994  0.00  0.00    +0.001 A 
ATOM      4  C   UNL     1     -27.477  17.172 113.234  0.00  0.00    +0.000 A 
ATOM      5  C   UNL     1     -27.567  17.170 111.854  0.00  0.00    +0.001 A 
ATOM      6  C   UNL     1     -28.534  16.416 111.223  0.00  0.00    +0.011 A 
ENDROOT
BRANCH   1   7
ATOM      7  C   UNL     1     -30.461  14.844 111.318  0.00  0.00    +0.258 C 
ATOM      8  O   UNL     1     -30.141  13.985 110.524  0.00  0.00    -0.296 OA
ENDBRANCH   1   7
TORSDOF 1
ENDMDL
MODEL 8
REMARK VINA RESULT:      -3.9      6.356      7.601
REMARK  Name = HBX
REMARK  1 active torsions:
REMARK  status: ('A' for Active; 'I' for Inactive)
REMARK    1  A    between atoms: C_1  and  C_3
REMARK                            x       y       z     vdW  Elec       q    Type
REMARK                         _______ _______ _______ _____ _____    ______ ____
ROOT
ATOM      1  C   UNL     1     -24.146  16.073 118.252  0.00  0.00    +0.014 A 
ATOM      2  C   UNL     1     -24.998  15.017 118.586  0.00  0.00    +0.011 A 
ATOM      3  C   UNL     1     -26.318  15.048 118.188  0.00  0.00    +0.001 A 
ATOM      4  C   UNL     1     -26.796  16.118 117.450  0.00  0.00    +0.000 A 
ATOM      5  C   UNL     1     -25.958  17.165 117.111  0.00  0.00    +0.001 A 
ATOM      6  C   UNL     1     -24.637  17.150 117.506  0.00  0.00    +0.011 A 
ENDROOT
BRANCH   1   7
ATOM      7  C   UNL     1     -22.737  16.051 118.678  0.00  0.00    +0.258 C 
ATOM      8  O   UNL     1     -21.965  16.889 118.263  0.00  0.00    -0.296 OA
ENDBRANCH   1   7
TORSDOF 1
ENDMDL
MODEL 9
REMARK VINA RESULT:      -3.9      6.366      7.509
REMARK  Name = HBX
REMARK  1 active torsions:
REMARK  status: ('A' for Active; 'I' for Inactive)
REMARK    1  A    between atoms: C_1  and  C_3
REMARK                            x       y       z     vdW  Elec       q    Type
REMARK                         _______ _______ _______ _____ _____    ______ ____
ROOT
ATOM      1  C   UNL     1     -24.152  16.039 118.237  0.00  0.00    +0.014 A 
ATOM      2  C   UNL     1     -24.643  17.117 117.496  0.00  0.00    +0.011 A 
ATOM      3  C   UNL     1     -25.969  17.141 117.115  0.00  0.00    +0.001 A 
ATOM      4  C   UNL     1     -26.814  16.105 117.475  0.00  0.00    +0.000 A 
ATOM      5  C   UNL     1     -26.336  15.038 118.214  0.00  0.00    +0.001 A 
ATOM      6  C   UNL     1     -25.012  14.997 118.597  0.00  0.00    +0.011 A 
ENDROOT
BRANCH   1   7
ATOM      7  C   UNL     1     -22.737  16.003 118.642  0.00  0.00    +0.258 C 
ATOM      8  O   UNL     1     -21.990  16.900 118.313  0.00  0.00    -0.296 OA
ENDBRANCH   1   7
TORSDOF 1
ENDMDL
