MODEL 1
REMARK VINA RESULT:      -3.3      0.000      0.000
REMARK  Name = IPA
REMARK  3 active torsions:
REMARK  status: ('A' for Active; 'I' for Inactive)
REMARK    1  A    between atoms: C_1  and  C_2
REMARK    2  A    between atoms: C_2  and  C_3
REMARK    3  A    between atoms: C_2  and  O_4
REMARK                            x       y       z     vdW  Elec       q    Type
REMARK                         _______ _______ _______ _____ _____    ______ ____
ROOT
ATOM      1  C   UNL     1     -16.303  19.189 109.387  0.00  0.00    +0.037 C 
ATOM      2  C   UNL     1     -14.795  19.451 109.384  0.00  0.00    +0.108 C 
ATOM      3  C   UNL     1     -14.377  20.012 108.024  0.00  0.00    +0.037 C 
ENDROOT
BRANCH   2   4
ATOM      4  O   UNL     1     -14.473  20.392 110.409  0.00  0.00    -0.392 OA
ATOM      5  H   UNL     1     -14.685  20.090 111.302  0.00  0.00    +0.210 HD
ENDBRANCH   2   4
TORSDOF 1
ENDMDL
MODEL 2
REMARK VINA RESULT:      -3.1      9.361      9.813
REMARK  Name = IPA
REMARK  3 active torsions:
REMARK  status: ('A' for Active; 'I' for Inactive)
REMARK    1  A    between atoms: C_1  and  C_2
REMARK    2  A    between atoms: C_2  and  C_3
REMARK    3  A    between atoms: C_2  and  O_4
REMARK                            x       y       z     vdW  Elec       q    Type
REMARK                         _______ _______ _______ _____ _____    ______ ____
ROOT
ATOM      1  C   UNL     1     -25.173  21.094 108.314  0.00  0.00    +0.037 C 
ATOM      2  C   UNL     1     -24.169  21.639 109.332  0.00  0.00    +0.108 C 
ATOM      3  C   UNL     1     -24.726  22.915 109.966  0.00  0.00    +0.037 C 
ENDROOT
BRANCH   2   4
ATOM      4  O   UNL     1     -23.941  20.662 110.348  0.00  0.00    -0.392 OA
ATOM      5  H   UNL     1     -23.673  21.033 111.199  0.00  0.00    +0.210 HD
ENDBRANCH   2   4
TORSDOF 1
ENDMDL
MODEL 3
REMARK VINA RESULT:      -3.0      1.179      2.114
REMARK  Name = IPA
REMARK  3 active torsions:
REMARK  status: ('A' for Active; 'I' for Inactive)
REMARK    1  A    between atoms: C_1  and  C_2
REMARK    2  A    between atoms: C_2  and  C_3
REMARK    3  A    between atoms: C_2  and  O_4
REMARK                            x       y       z     vdW  Elec       q    Type
REMARK                         _______ _______ _______ _____ _____    ______ ____
ROOT
ATOM      1  C   UNL     1     -14.466  19.867 108.387  0.00  0.00    +0.037 C 
ATOM      2  C   UNL     1     -15.121  19.399 109.689  0.00  0.00    +0.108 C 
ATOM      3  C   UNL     1     -16.622  19.210 109.465  0.00  0.00    +0.037 C 
ENDROOT
BRANCH   2   4
ATOM      4  O   UNL     1     -14.539  18.160 110.096  0.00  0.00    -0.392 OA
ATOM      5  H   UNL     1     -14.534  18.023 111.053  0.00  0.00    +0.210 HD
ENDBRANCH   2   4
TORSDOF 1
ENDMDL
MODEL 4
REMARK VINA RESULT:      -2.8     10.445     10.676
REMARK  Name = IPA
REMARK  3 active torsions:
REMARK  status: ('A' for Active; 'I' for Inactive)
REMARK    1  A    between atoms: C_1  and  C_2
REMARK    2  A    between atoms: C_2  and  C_3
REMARK    3  A    between atoms: C_2  and  O_4
REMARK                            x       y       z     vdW  Elec       q    Type
REMARK                         _______ _______ _______ _____ _____    ______ ____
ROOT
ATOM      1  C   UNL     1     -25.667  22.377 108.979  0.00  0.00    +0.037 C 
ATOM      2  C   UNL     1     -25.571  21.030 108.259  0.00  0.00    +0.108 C 
ATOM      3  C   UNL     1     -26.022  21.194 106.806  0.00  0.00    +0.037 C 
ENDROOT
BRANCH   2   4
ATOM      4  O   UNL     1     -24.219  20.569 108.289  0.00  0.00    -0.392 OA
ATOM      5  H   UNL     1     -23.579  21.203 107.939  0.00  0.00    +0.210 HD
ENDBRANCH   2   4
TORSDOF 1
ENDMDL
MODEL 5
REMARK VINA RESULT:      -2.8      7.627      8.290
REMARK  Name = IPA
REMARK  3 active torsions:
REMARK  status: ('A' for Active; 'I' for Inactive)
REMARK    1  A    between atoms: C_1  and  C_2
REMARK    2  A    between atoms: C_2  and  C_3
REMARK    3  A    between atoms: C_2  and  O_4
REMARK                            x       y       z     vdW  Elec       q    Type
REMARK                         _______ _______ _______ _____ _____    ______ ____
ROOT
ATOM      1  C   UNL     1     -12.192  15.737 101.275  0.00  0.00    +0.037 C 
ATOM      2  C   UNL     1     -12.937  16.817 102.064  0.00  0.00    +0.108 C 
ATOM      3  C   UNL     1     -13.102  16.365 103.516  0.00  0.00    +0.037 C 
ENDROOT
BRANCH   2   4
ATOM      4  O   UNL     1     -12.193  18.035 102.024  0.00  0.00    -0.392 OA
ATOM      5  H   UNL     1     -12.020  18.419 102.894  0.00  0.00    +0.210 HD
ENDBRANCH   2   4
TORSDOF 1
ENDMDL
MODEL 6
REMARK VINA RESULT:      -2.6     15.875     16.511
REMARK  Name = IPA
REMARK  3 active torsions:
REMARK  status: ('A' for Active; 'I' for Inactive)
REMARK    1  A    between atoms: C_1  and  C_2
REMARK    2  A    between atoms: C_2  and  C_3
REMARK    3  A    between atoms: C_2  and  O_4
REMARK                            x       y       z     vdW  Elec       q    Type
REMARK                         _______ _______ _______ _____ _____    ______ ____
ROOT
ATOM      1  C   UNL     1     -29.459  14.743 112.890  0.00  0.00    +0.037 C 
ATOM      2  C   UNL     1     -30.299  16.012 113.057  0.00  0.00    +0.108 C 
ATOM      3  C   UNL     1     -31.779  15.672 112.867  0.00  0.00    +0.037 C 
ENDROOT
BRANCH   2   4
ATOM      4  O   UNL     1     -30.097  16.547 114.365  0.00  0.00    -0.392 OA
ATOM      5  H   UNL     1     -30.396  17.461 114.467  0.00  0.00    +0.210 HD
ENDBRANCH   2   4
TORSDOF 1
ENDMDL
MODEL 7
REMARK VINA RESULT:      -2.6     15.010     15.919
REMARK  Name = IPA
REMARK  3 active torsions:
REMARK  status: ('A' for Active; 'I' for Inactive)
REMARK    1  A    between atoms: C_1  and  C_2
REMARK    2  A    between atoms: C_2  and  C_3
REMARK    3  A    between atoms: C_2  and  O_4
REMARK                            x       y       z     vdW  Elec       q    Type
REMARK                         _______ _______ _______ _____ _____    ______ ____
ROOT
ATOM      1  C   UNL     1     -31.176  15.559 112.661  0.00  0.00    +0.037 C 
ATOM      2  C   UNL     1     -29.849  15.742 113.402  0.00  0.00    +0.108 C 
ATOM      3  C   UNL     1     -28.775  16.204 112.415  0.00  0.00    +0.037 C 
ENDROOT
BRANCH   2   4
ATOM      4  O   UNL     1     -30.008  16.722 114.428  0.00  0.00    -0.392 OA
ATOM      5  H   UNL     1     -29.649  16.457 115.285  0.00  0.00    +0.210 HD
ENDBRANCH   2   4
TORSDOF 1
ENDMDL
MODEL 8
REMARK VINA RESULT:      -2.6     11.325     11.652
REMARK  Name = IPA
REMARK  3 active torsions:
REMARK  status: ('A' for Active; 'I' for Inactive)
REMARK    1  A    between atoms: C_1  and  C_2
REMARK    2  A    between atoms: C_2  and  C_3
REMARK    3  A    between atoms: C_2  and  O_4
REMARK                            x       y       z     vdW  Elec       q    Type
REMARK                         _______ _______ _______ _____ _____    ______ ____
ROOT
ATOM      1  C   UNL     1     -18.508  10.711 101.699  0.00  0.00    +0.037 C 
ATOM      2  C   UNL     1     -18.975  11.480 102.937  0.00  0.00    +0.108 C 
ATOM      3  C   UNL     1     -20.396  11.998 102.710  0.00  0.00    +0.037 C 
ENDROOT
BRANCH   2   4
ATOM      4  O   UNL     1     -18.959  10.612 104.071  0.00  0.00    -0.392 OA
ATOM      5  H   UNL     1     -19.630  10.819 104.735  0.00  0.00    +0.210 HD
ENDBRANCH   2   4
TORSDOF 1
ENDMDL
MODEL 9
REMARK VINA RESULT:      -2.5     14.881     15.717
REMARK  Name = IPA
REMARK  3 active torsions:
REMARK  status: ('A' for Active; 'I' for Inactive)
REMARK    1  A    between atoms: C_1  and  C_2
REMARK    2  A    between atoms: C_2  and  C_3
REMARK    3  A    between atoms: C_2  and  O_4
REMARK                            x       y       z     vdW  Elec       q    Type
REMARK                         _______ _______ _______ _____ _____    ______ ____
ROOT
ATOM      1  C   UNL     1     -30.556  15.281 112.445  0.00  0.00    +0.037 C 
ATOM      2  C   UNL     1     -29.739  14.363 111.532  0.00  0.00    +0.108 C 
ATOM      3  C   UNL     1     -28.556  15.141 110.954  0.00  0.00    +0.037 C 
ENDROOT
BRANCH   2   4
ATOM      4  O   UNL     1     -29.256  13.250 112.285  0.00  0.00    -0.392 OA
ATOM      5  H   UNL     1     -29.560  13.234 113.203  0.00  0.00    +0.210 HD
ENDBRANCH   2   4
TORSDOF 1
ENDMDL
