MODEL 1
REMARK VINA RESULT:      -4.2      0.000      0.000
REMARK  Name = IPH
REMARK  1 active torsions:
REMARK  status: ('A' for Active; 'I' for Inactive)
REMARK    1  A    between atoms: C_1  and  O_7
REMARK                            x       y       z     vdW  Elec       q    Type
REMARK                         _______ _______ _______ _____ _____    ______ ____
ROOT
ATOM      1  C   UNL     1     -29.431  15.299 113.346  0.00  0.00    +0.117 A 
ATOM      2  C   UNL     1     -29.147  14.612 112.176  0.00  0.00    +0.045 A 
ATOM      3  C   UNL     1     -30.096  14.530 111.176  0.00  0.00    +0.004 A 
ATOM      4  C   UNL     1     -31.325  15.144 111.336  0.00  0.00    +0.000 A 
ATOM      5  C   UNL     1     -31.608  15.834 112.500  0.00  0.00    +0.004 A 
ATOM      6  C   UNL     1     -30.664  15.913 113.504  0.00  0.00    +0.045 A 
ENDROOT
BRANCH   1   7
ATOM      7  O   UNL     1     -28.500  15.376 114.334  0.00  0.00    -0.507 OA
ATOM      8  H   UNL     1     -27.830  16.006 114.038  0.00  0.00    +0.292 HD
ENDBRANCH   1   7
TORSDOF 1
ENDMDL
MODEL 2
REMARK VINA RESULT:      -4.1      2.150      2.783
REMARK  Name = IPH
REMARK  1 active torsions:
REMARK  status: ('A' for Active; 'I' for Inactive)
REMARK    1  A    between atoms: C_1  and  O_7
REMARK                            x       y       z     vdW  Elec       q    Type
REMARK                         _______ _______ _______ _____ _____    ______ ____
ROOT
ATOM      1  C   UNL     1     -27.665  16.926 112.404  0.00  0.00    +0.117 A 
ATOM      2  C   UNL     1     -28.410  16.565 113.517  0.00  0.00    +0.045 A 
ATOM      3  C   UNL     1     -29.610  15.902 113.359  0.00  0.00    +0.004 A 
ATOM      4  C   UNL     1     -30.065  15.587 112.092  0.00  0.00    +0.000 A 
ATOM      5  C   UNL     1     -29.322  15.942 110.981  0.00  0.00    +0.004 A 
ATOM      6  C   UNL     1     -28.124  16.609 111.135  0.00  0.00    +0.045 A 
ENDROOT
BRANCH   1   7
ATOM      7  O   UNL     1     -26.486  17.583 112.558  0.00  0.00    -0.507 OA
ATOM      8  H   UNL     1     -26.560  18.411 112.065  0.00  0.00    +0.292 HD
ENDBRANCH   1   7
TORSDOF 1
ENDMDL
MODEL 3
REMARK VINA RESULT:      -4.0      1.979      2.720
REMARK  Name = IPH
REMARK  1 active torsions:
REMARK  status: ('A' for Active; 'I' for Inactive)
REMARK    1  A    between atoms: C_1  and  O_7
REMARK                            x       y       z     vdW  Elec       q    Type
REMARK                         _______ _______ _______ _____ _____    ______ ____
ROOT
ATOM      1  C   UNL     1     -29.406  15.966 111.014  0.00  0.00    +0.117 A 
ATOM      2  C   UNL     1     -30.758  15.663 111.023  0.00  0.00    +0.045 A 
ATOM      3  C   UNL     1     -31.437  15.570 112.221  0.00  0.00    +0.004 A 
ATOM      4  C   UNL     1     -30.772  15.792 113.413  0.00  0.00    +0.000 A 
ATOM      5  C   UNL     1     -29.424  16.100 113.407  0.00  0.00    +0.004 A 
ATOM      6  C   UNL     1     -28.740  16.188 112.211  0.00  0.00    +0.045 A 
ENDROOT
BRANCH   1   7
ATOM      7  O   UNL     1     -28.734  16.053 109.836  0.00  0.00    -0.507 OA
ATOM      8  H   UNL     1     -29.231  15.531 109.192  0.00  0.00    +0.292 HD
ENDBRANCH   1   7
TORSDOF 1
ENDMDL
MODEL 4
REMARK VINA RESULT:      -3.9      6.210      7.384
REMARK  Name = IPH
REMARK  1 active torsions:
REMARK  status: ('A' for Active; 'I' for Inactive)
REMARK    1  A    between atoms: C_1  and  O_7
REMARK                            x       y       z     vdW  Elec       q    Type
REMARK                         _______ _______ _______ _____ _____    ______ ____
ROOT
ATOM      1  C   UNL     1     -26.425  15.068 118.076  0.00  0.00    +0.117 A 
ATOM      2  C   UNL     1     -25.197  14.824 118.671  0.00  0.00    +0.045 A 
ATOM      3  C   UNL     1     -24.164  15.725 118.516  0.00  0.00    +0.004 A 
ATOM      4  C   UNL     1     -24.356  16.880 117.779  0.00  0.00    +0.000 A 
ATOM      5  C   UNL     1     -25.582  17.128 117.189  0.00  0.00    +0.004 A 
ATOM      6  C   UNL     1     -26.615  16.226 117.336  0.00  0.00    +0.045 A 
ENDROOT
BRANCH   1   7
ATOM      7  O   UNL     1     -27.442  14.179 118.222  0.00  0.00    -0.507 OA
ATOM      8  H   UNL     1     -28.264  14.673 118.108  0.00  0.00    +0.292 HD
ENDBRANCH   1   7
TORSDOF 1
ENDMDL
MODEL 5
REMARK VINA RESULT:      -3.9      6.212      7.477
REMARK  Name = IPH
REMARK  1 active torsions:
REMARK  status: ('A' for Active; 'I' for Inactive)
REMARK    1  A    between atoms: C_1  and  O_7
REMARK                            x       y       z     vdW  Elec       q    Type
REMARK                         _______ _______ _______ _____ _____    ______ ____
ROOT
ATOM      1  C   UNL     1     -26.427  15.028 118.088  0.00  0.00    +0.117 A 
ATOM      2  C   UNL     1     -26.608  16.181 117.340  0.00  0.00    +0.045 A 
ATOM      3  C   UNL     1     -25.573  17.084 117.202  0.00  0.00    +0.004 A 
ATOM      4  C   UNL     1     -24.351  16.833 117.798  0.00  0.00    +0.000 A 
ATOM      5  C   UNL     1     -24.167  15.681 118.541  0.00  0.00    +0.004 A 
ATOM      6  C   UNL     1     -25.201  14.779 118.686  0.00  0.00    +0.045 A 
ENDROOT
BRANCH   1   7
ATOM      7  O   UNL     1     -27.447  14.141 118.230  0.00  0.00    -0.507 OA
ATOM      8  H   UNL     1     -27.253  13.615 119.016  0.00  0.00    +0.292 HD
ENDBRANCH   1   7
TORSDOF 1
ENDMDL
MODEL 6
REMARK VINA RESULT:      -3.7      7.391      8.354
REMARK  Name = IPH
REMARK  1 active torsions:
REMARK  status: ('A' for Active; 'I' for Inactive)
REMARK    1  A    between atoms: C_1  and  O_7
REMARK                            x       y       z     vdW  Elec       q    Type
REMARK                         _______ _______ _______ _____ _____    ______ ____
ROOT
ATOM      1  C   UNL     1     -23.424  16.482 118.641  0.00  0.00    +0.117 A 
ATOM      2  C   UNL     1     -23.833  15.293 119.226  0.00  0.00    +0.045 A 
ATOM      3  C   UNL     1     -25.047  14.735 118.879  0.00  0.00    +0.004 A 
ATOM      4  C   UNL     1     -25.850  15.354 117.939  0.00  0.00    +0.000 A 
ATOM      5  C   UNL     1     -25.442  16.537 117.351  0.00  0.00    +0.004 A 
ATOM      6  C   UNL     1     -24.231  17.101 117.699  0.00  0.00    +0.045 A 
ENDROOT
BRANCH   1   7
ATOM      7  O   UNL     1     -22.231  17.035 118.986  0.00  0.00    -0.507 OA
ATOM      8  H   UNL     1     -22.023  17.694 118.310  0.00  0.00    +0.292 HD
ENDBRANCH   1   7
TORSDOF 1
ENDMDL
MODEL 7
REMARK VINA RESULT:      -3.7      6.341      7.520
REMARK  Name = IPH
REMARK  1 active torsions:
REMARK  status: ('A' for Active; 'I' for Inactive)
REMARK    1  A    between atoms: C_1  and  O_7
REMARK                            x       y       z     vdW  Elec       q    Type
REMARK                         _______ _______ _______ _____ _____    ______ ____
ROOT
ATOM      1  C   UNL     1     -25.855  16.817 117.192  0.00  0.00    +0.117 A 
ATOM      2  C   UNL     1     -24.537  16.979 117.594  0.00  0.00    +0.045 A 
ATOM      3  C   UNL     1     -23.954  16.055 118.438  0.00  0.00    +0.004 A 
ATOM      4  C   UNL     1     -24.679  14.961 118.874  0.00  0.00    +0.000 A 
ATOM      5  C   UNL     1     -25.992  14.794 118.471  0.00  0.00    +0.004 A 
ATOM      6  C   UNL     1     -26.580  15.719 117.631  0.00  0.00    +0.045 A 
ENDROOT
BRANCH   1   7
ATOM      7  O   UNL     1     -26.432  17.728 116.366  0.00  0.00    -0.507 OA
ATOM      8  H   UNL     1     -26.006  17.633 115.504  0.00  0.00    +0.292 HD
ENDBRANCH   1   7
TORSDOF 1
ENDMDL
MODEL 8
REMARK VINA RESULT:      -3.5     20.803     21.531
REMARK  Name = IPH
REMARK  1 active torsions:
REMARK  status: ('A' for Active; 'I' for Inactive)
REMARK    1  A    between atoms: C_1  and  O_7
REMARK                            x       y       z     vdW  Elec       q    Type
REMARK                         _______ _______ _______ _____ _____    ______ ____
ROOT
ATOM      1  C   UNL     1     -11.871  21.407 120.770  0.00  0.00    +0.117 A 
ATOM      2  C   UNL     1     -11.853  22.313 119.720  0.00  0.00    +0.045 A 
ATOM      3  C   UNL     1     -10.755  22.383 118.888  0.00  0.00    +0.004 A 
ATOM      4  C   UNL     1      -9.676  21.542 119.091  0.00  0.00    +0.000 A 
ATOM      5  C   UNL     1      -9.694  20.634 120.134  0.00  0.00    +0.004 A 
ATOM      6  C   UNL     1     -10.788  20.565 120.973  0.00  0.00    +0.045 A 
ENDROOT
BRANCH   1   7
ATOM      7  O   UNL     1     -12.949  21.340 121.594  0.00  0.00    -0.507 OA
ATOM      8  H   UNL     1     -13.044  22.211 122.002  0.00  0.00    +0.292 HD
ENDBRANCH   1   7
TORSDOF 1
ENDMDL
MODEL 9
REMARK VINA RESULT:      -3.4      7.829      8.696
REMARK  Name = IPH
REMARK  1 active torsions:
REMARK  status: ('A' for Active; 'I' for Inactive)
REMARK    1  A    between atoms: C_1  and  O_7
REMARK                            x       y       z     vdW  Elec       q    Type
REMARK                         _______ _______ _______ _____ _____    ______ ____
ROOT
ATOM      1  C   UNL     1     -23.400  14.203 119.262  0.00  0.00    +0.117 A 
ATOM      2  C   UNL     1     -23.660  12.888 118.909  0.00  0.00    +0.045 A 
ATOM      3  C   UNL     1     -24.895  12.542 118.398  0.00  0.00    +0.004 A 
ATOM      4  C   UNL     1     -25.868  13.508 118.225  0.00  0.00    +0.000 A 
ATOM      5  C   UNL     1     -25.609  14.822 118.572  0.00  0.00    +0.004 A 
ATOM      6  C   UNL     1     -24.378  15.171 119.088  0.00  0.00    +0.045 A 
ENDROOT
BRANCH   1   7
ATOM      7  O   UNL     1     -22.187  14.545 119.770  0.00  0.00    -0.507 OA
ATOM      8  H   UNL     1     -22.156  14.204 120.673  0.00  0.00    +0.292 HD
ENDBRANCH   1   7
TORSDOF 1
ENDMDL
