MODEL 1
REMARK VINA RESULT:      -2.1      0.000      0.000
REMARK  Name = NME
REMARK  1 active torsions:
REMARK  status: ('A' for Active; 'I' for Inactive)
REMARK    1  A    between atoms: N_1  and  C_2
REMARK                            x       y       z     vdW  Elec       q    Type
REMARK                         _______ _______ _______ _____ _____    ______ ____
ROOT
ATOM      1  N   UNL     1     -14.446  22.559 113.384  0.00  0.00    -0.333 NA
ATOM      2  H   UNL     1     -14.595  23.058 112.520  0.00  0.00    +0.118 HD
ATOM      3  H   UNL     1     -14.523  21.563 113.244  0.00  0.00    +0.118 HD
ATOM      4  C   UNL     1     -15.375  23.019 114.425  0.00  0.00    +0.097 C 
ENDROOT
TORSDOF 0
ENDMDL
MODEL 2
REMARK VINA RESULT:      -2.0     16.048     16.048
REMARK  Name = NME
REMARK  1 active torsions:
REMARK  status: ('A' for Active; 'I' for Inactive)
REMARK    1  A    between atoms: N_1  and  C_2
REMARK                            x       y       z     vdW  Elec       q    Type
REMARK                         _______ _______ _______ _____ _____    ______ ____
ROOT
ATOM      1  N   UNL     1     -27.986  16.827 106.676  0.00  0.00    -0.333 NA
ATOM      2  H   UNL     1     -28.329  16.772 107.623  0.00  0.00    +0.118 HD
ATOM      3  H   UNL     1     -27.033  16.499 106.617  0.00  0.00    +0.118 HD
ATOM      4  C   UNL     1     -28.106  18.194 106.150  0.00  0.00    +0.097 C 
ENDROOT
TORSDOF 0
ENDMDL
MODEL 3
REMARK VINA RESULT:      -1.8     12.194     12.194
REMARK  Name = NME
REMARK  1 active torsions:
REMARK  status: ('A' for Active; 'I' for Inactive)
REMARK    1  A    between atoms: N_1  and  C_2
REMARK                            x       y       z     vdW  Elec       q    Type
REMARK                         _______ _______ _______ _____ _____    ______ ____
ROOT
ATOM      1  N   UNL     1     -17.088  15.178 122.705  0.00  0.00    -0.333 NA
ATOM      2  H   UNL     1     -16.807  16.076 122.339  0.00  0.00    +0.118 HD
ATOM      3  H   UNL     1     -17.665  15.287 123.526  0.00  0.00    +0.118 HD
ATOM      4  C   UNL     1     -15.918  14.337 122.991  0.00  0.00    +0.097 C 
ENDROOT
TORSDOF 0
ENDMDL
MODEL 4
REMARK VINA RESULT:      -1.8      5.169      5.169
REMARK  Name = NME
REMARK  1 active torsions:
REMARK  status: ('A' for Active; 'I' for Inactive)
REMARK    1  A    between atoms: N_1  and  C_2
REMARK                            x       y       z     vdW  Elec       q    Type
REMARK                         _______ _______ _______ _____ _____    ______ ____
ROOT
ATOM      1  N   UNL     1     -14.425  20.247 110.071  0.00  0.00    -0.333 NA
ATOM      2  H   UNL     1     -14.894  20.924 110.654  0.00  0.00    +0.118 HD
ATOM      3  H   UNL     1     -14.059  20.682 109.236  0.00  0.00    +0.118 HD
ATOM      4  C   UNL     1     -15.320  19.132 109.735  0.00  0.00    +0.097 C 
ENDROOT
TORSDOF 0
ENDMDL
MODEL 5
REMARK VINA RESULT:      -1.8     10.895     10.895
REMARK  Name = NME
REMARK  1 active torsions:
REMARK  status: ('A' for Active; 'I' for Inactive)
REMARK    1  A    between atoms: N_1  and  C_2
REMARK                            x       y       z     vdW  Elec       q    Type
REMARK                         _______ _______ _______ _____ _____    ______ ____
ROOT
ATOM      1  N   UNL     1     -24.193  20.255 109.976  0.00  0.00    -0.333 NA
ATOM      2  H   UNL     1     -24.586  20.500 110.872  0.00  0.00    +0.118 HD
ATOM      3  H   UNL     1     -23.202  20.445 109.953  0.00  0.00    +0.118 HD
ATOM      4  C   UNL     1     -24.888  20.953 108.886  0.00  0.00    +0.097 C 
ENDROOT
TORSDOF 0
ENDMDL
MODEL 6
REMARK VINA RESULT:      -1.8      7.916      7.916
REMARK  Name = NME
REMARK  1 active torsions:
REMARK  status: ('A' for Active; 'I' for Inactive)
REMARK    1  A    between atoms: N_1  and  C_2
REMARK                            x       y       z     vdW  Elec       q    Type
REMARK                         _______ _______ _______ _____ _____    ______ ____
ROOT
ATOM      1  N   UNL     1     -14.985  21.546 121.594  0.00  0.00    -0.333 NA
ATOM      2  H   UNL     1     -15.528  21.657 122.437  0.00  0.00    +0.118 HD
ATOM      3  H   UNL     1     -14.865  20.570 121.368  0.00  0.00    +0.118 HD
ATOM      4  C   UNL     1     -13.686  22.223 121.712  0.00  0.00    +0.097 C 
ENDROOT
TORSDOF 0
ENDMDL
MODEL 7
REMARK VINA RESULT:      -1.6     13.179     13.179
REMARK  Name = NME
REMARK  1 active torsions:
REMARK  status: ('A' for Active; 'I' for Inactive)
REMARK    1  A    between atoms: N_1  and  C_2
REMARK                            x       y       z     vdW  Elec       q    Type
REMARK                         _______ _______ _______ _____ _____    ______ ____
ROOT
ATOM      1  N   UNL     1     -26.131  17.467 112.916  0.00  0.00    -0.333 NA
ATOM      2  H   UNL     1     -25.638  16.594 113.023  0.00  0.00    +0.118 HD
ATOM      3  H   UNL     1     -26.090  18.012 113.765  0.00  0.00    +0.118 HD
ATOM      4  C   UNL     1     -27.523  17.240 112.503  0.00  0.00    +0.097 C 
ENDROOT
TORSDOF 0
ENDMDL
MODEL 8
REMARK VINA RESULT:      -1.6     16.783     16.783
REMARK  Name = NME
REMARK  1 active torsions:
REMARK  status: ('A' for Active; 'I' for Inactive)
REMARK    1  A    between atoms: N_1  and  C_2
REMARK                            x       y       z     vdW  Elec       q    Type
REMARK                         _______ _______ _______ _____ _____    ______ ____
ROOT
ATOM      1  N   UNL     1     -29.932  16.663 114.347  0.00  0.00    -0.333 NA
ATOM      2  H   UNL     1     -30.508  17.370 114.780  0.00  0.00    +0.118 HD
ATOM      3  H   UNL     1     -29.136  17.079 113.885  0.00  0.00    +0.118 HD
ATOM      4  C   UNL     1     -30.715  15.843 113.413  0.00  0.00    +0.097 C 
ENDROOT
TORSDOF 0
ENDMDL
MODEL 9
REMARK VINA RESULT:      -1.6     20.561     20.561
REMARK  Name = NME
REMARK  1 active torsions:
REMARK  status: ('A' for Active; 'I' for Inactive)
REMARK    1  A    between atoms: N_1  and  C_2
REMARK                            x       y       z     vdW  Elec       q    Type
REMARK                         _______ _______ _______ _____ _____    ______ ____
ROOT
ATOM      1  N   UNL     1     -23.734   5.476 107.696  0.00  0.00    -0.333 NA
ATOM      2  H   UNL     1     -24.235   4.979 106.975  0.00  0.00    +0.118 HD
ATOM      3  H   UNL     1     -23.012   6.058 107.297  0.00  0.00    +0.118 HD
ATOM      4  C   UNL     1     -23.174   4.545 108.686  0.00  0.00    +0.097 C 
ENDROOT
TORSDOF 0
ENDMDL
