MODEL 1
REMARK VINA RESULT:      -3.0      0.000      0.000
REMARK  Name = TBU
REMARK  4 active torsions:
REMARK  status: ('A' for Active; 'I' for Inactive)
REMARK    1  A    between atoms: O_1  and  C_2
REMARK    2  A    between atoms: C_2  and  C_3
REMARK    3  A    between atoms: C_2  and  C_4
REMARK    4  A    between atoms: C_2  and  C_5
REMARK                            x       y       z     vdW  Elec       q    Type
REMARK                         _______ _______ _______ _____ _____    ______ ____
ROOT
ATOM      1  C   UNL     1     -29.113  15.477 113.178  0.00  0.00    +0.058 C 
ATOM      2  C   UNL     1     -28.406  16.528 112.320  0.00  0.00    +0.041 C 
ATOM      3  C   UNL     1     -30.554  15.921 113.442  0.00  0.00    +0.041 C 
ATOM      4  C   UNL     1     -29.120  14.137 112.440  0.00  0.00    +0.041 C 
ENDROOT
BRANCH   1   5
ATOM      5  O   UNL     1     -28.423  15.333 114.421  0.00  0.00    -0.389 OA
ATOM      6  H   UNL     1     -28.770  14.628 114.984  0.00  0.00    +0.210 HD
ENDBRANCH   1   5
TORSDOF 1
ENDMDL
MODEL 2
REMARK VINA RESULT:      -3.0      0.009      1.935
REMARK  Name = TBU
REMARK  4 active torsions:
REMARK  status: ('A' for Active; 'I' for Inactive)
REMARK    1  A    between atoms: O_1  and  C_2
REMARK    2  A    between atoms: C_2  and  C_3
REMARK    3  A    between atoms: C_2  and  C_4
REMARK    4  A    between atoms: C_2  and  C_5
REMARK                            x       y       z     vdW  Elec       q    Type
REMARK                         _______ _______ _______ _____ _____    ______ ____
ROOT
ATOM      1  C   UNL     1     -29.116  15.480 113.178  0.00  0.00    +0.058 C 
ATOM      2  C   UNL     1     -29.128  14.145 112.432  0.00  0.00    +0.041 C 
ATOM      3  C   UNL     1     -28.404  16.534 112.327  0.00  0.00    +0.041 C 
ATOM      4  C   UNL     1     -30.555  15.928 113.445  0.00  0.00    +0.041 C 
ENDROOT
BRANCH   1   5
ATOM      5  O   UNL     1     -28.427  15.326 114.420  0.00  0.00    -0.389 OA
ATOM      6  H   UNL     1     -28.673  14.529 114.910  0.00  0.00    +0.210 HD
ENDBRANCH   1   5
TORSDOF 1
ENDMDL
MODEL 3
REMARK VINA RESULT:      -3.0      2.506      3.003
REMARK  Name = TBU
REMARK  4 active torsions:
REMARK  status: ('A' for Active; 'I' for Inactive)
REMARK    1  A    between atoms: O_1  and  C_2
REMARK    2  A    between atoms: C_2  and  C_3
REMARK    3  A    between atoms: C_2  and  C_4
REMARK    4  A    between atoms: C_2  and  C_5
REMARK                            x       y       z     vdW  Elec       q    Type
REMARK                         _______ _______ _______ _____ _____    ______ ____
ROOT
ATOM      1  C   UNL     1     -29.970  15.148 111.287  0.00  0.00    +0.058 C 
ATOM      2  C   UNL     1     -31.404  15.537 110.922  0.00  0.00    +0.041 C 
ATOM      3  C   UNL     1     -28.999  16.184 110.716  0.00  0.00    +0.041 C 
ATOM      4  C   UNL     1     -29.827  15.100 112.809  0.00  0.00    +0.041 C 
ENDROOT
BRANCH   1   5
ATOM      5  O   UNL     1     -29.671  13.863 110.739  0.00  0.00    -0.389 OA
ATOM      6  H   UNL     1     -30.291  13.573 110.056  0.00  0.00    +0.210 HD
ENDBRANCH   1   5
TORSDOF 1
ENDMDL
MODEL 4
REMARK VINA RESULT:      -3.0      2.506      2.842
REMARK  Name = TBU
REMARK  4 active torsions:
REMARK  status: ('A' for Active; 'I' for Inactive)
REMARK    1  A    between atoms: O_1  and  C_2
REMARK    2  A    between atoms: C_2  and  C_3
REMARK    3  A    between atoms: C_2  and  C_4
REMARK    4  A    between atoms: C_2  and  C_5
REMARK                            x       y       z     vdW  Elec       q    Type
REMARK                         _______ _______ _______ _____ _____    ______ ____
ROOT
ATOM      1  C   UNL     1     -29.970  15.148 111.286  0.00  0.00    +0.058 C 
ATOM      2  C   UNL     1     -29.827  15.101 112.809  0.00  0.00    +0.041 C 
ATOM      3  C   UNL     1     -31.404  15.538 110.921  0.00  0.00    +0.041 C 
ATOM      4  C   UNL     1     -28.999  16.184 110.716  0.00  0.00    +0.041 C 
ENDROOT
BRANCH   1   5
ATOM      5  O   UNL     1     -29.671  13.863 110.739  0.00  0.00    -0.389 OA
ATOM      6  H   UNL     1     -28.777  13.551 110.934  0.00  0.00    +0.210 HD
ENDBRANCH   1   5
TORSDOF 1
ENDMDL
MODEL 5
REMARK VINA RESULT:      -3.0      2.511      2.678
REMARK  Name = TBU
REMARK  4 active torsions:
REMARK  status: ('A' for Active; 'I' for Inactive)
REMARK    1  A    between atoms: O_1  and  C_2
REMARK    2  A    between atoms: C_2  and  C_3
REMARK    3  A    between atoms: C_2  and  C_4
REMARK    4  A    between atoms: C_2  and  C_5
REMARK                            x       y       z     vdW  Elec       q    Type
REMARK                         _______ _______ _______ _____ _____    ______ ____
ROOT
ATOM      1  C   UNL     1     -29.991  15.145 111.290  0.00  0.00    +0.058 C 
ATOM      2  C   UNL     1     -29.030  16.189 110.717  0.00  0.00    +0.041 C 
ATOM      3  C   UNL     1     -29.851  15.104 112.813  0.00  0.00    +0.041 C 
ATOM      4  C   UNL     1     -31.428  15.519 110.921  0.00  0.00    +0.041 C 
ENDROOT
BRANCH   1   5
ATOM      5  O   UNL     1     -29.679  13.861 110.747  0.00  0.00    -0.389 OA
ATOM      6  H   UNL     1     -30.015  13.121 111.270  0.00  0.00    +0.210 HD
ENDBRANCH   1   5
TORSDOF 1
ENDMDL
MODEL 6
REMARK VINA RESULT:      -3.0      2.454      3.366
REMARK  Name = TBU
REMARK  4 active torsions:
REMARK  status: ('A' for Active; 'I' for Inactive)
REMARK    1  A    between atoms: O_1  and  C_2
REMARK    2  A    between atoms: C_2  and  C_3
REMARK    3  A    between atoms: C_2  and  C_4
REMARK    4  A    between atoms: C_2  and  C_5
REMARK                            x       y       z     vdW  Elec       q    Type
REMARK                         _______ _______ _______ _____ _____    ______ ____
ROOT
ATOM      1  C   UNL     1     -28.176  16.033 110.880  0.00  0.00    +0.058 C 
ATOM      2  C   UNL     1     -29.667  15.740 111.063  0.00  0.00    +0.041 C 
ATOM      3  C   UNL     1     -27.948  16.676 109.510  0.00  0.00    +0.041 C 
ATOM      4  C   UNL     1     -27.707  16.991 111.977  0.00  0.00    +0.041 C 
ENDROOT
BRANCH   1   5
ATOM      5  O   UNL     1     -27.436  14.814 110.963  0.00  0.00    -0.389 OA
ATOM      6  H   UNL     1     -27.986  14.029 111.092  0.00  0.00    +0.210 HD
ENDBRANCH   1   5
TORSDOF 1
ENDMDL
MODEL 7
REMARK VINA RESULT:      -2.9      2.376      2.874
REMARK  Name = TBU
REMARK  4 active torsions:
REMARK  status: ('A' for Active; 'I' for Inactive)
REMARK    1  A    between atoms: O_1  and  C_2
REMARK    2  A    between atoms: C_2  and  C_3
REMARK    3  A    between atoms: C_2  and  C_4
REMARK    4  A    between atoms: C_2  and  C_5
REMARK                            x       y       z     vdW  Elec       q    Type
REMARK                         _______ _______ _______ _____ _____    ______ ____
ROOT
ATOM      1  C   UNL     1     -28.139  15.839 110.974  0.00  0.00    +0.058 C 
ATOM      2  C   UNL     1     -27.771  16.798 112.109  0.00  0.00    +0.041 C 
ATOM      3  C   UNL     1     -29.594  15.394 111.134  0.00  0.00    +0.041 C 
ATOM      4  C   UNL     1     -27.968  16.550 109.631  0.00  0.00    +0.041 C 
ENDROOT
BRANCH   1   5
ATOM      5  O   UNL     1     -27.283  14.696 111.021  0.00  0.00    -0.389 OA
ATOM      6  H   UNL     1     -26.602  14.742 111.706  0.00  0.00    +0.210 HD
ENDBRANCH   1   5
TORSDOF 1
ENDMDL
MODEL 8
REMARK VINA RESULT:      -2.9      4.632      4.939
REMARK  Name = TBU
REMARK  4 active torsions:
REMARK  status: ('A' for Active; 'I' for Inactive)
REMARK    1  A    between atoms: O_1  and  C_2
REMARK    2  A    between atoms: C_2  and  C_3
REMARK    3  A    between atoms: C_2  and  C_4
REMARK    4  A    between atoms: C_2  and  C_5
REMARK                            x       y       z     vdW  Elec       q    Type
REMARK                         _______ _______ _______ _____ _____    ______ ____
ROOT
ATOM      1  C   UNL     1     -26.801  16.736 117.034  0.00  0.00    +0.058 C 
ATOM      2  C   UNL     1     -26.077  18.047 117.348  0.00  0.00    +0.041 C 
ATOM      3  C   UNL     1     -27.108  16.670 115.536  0.00  0.00    +0.041 C 
ATOM      4  C   UNL     1     -25.909  15.556 117.424  0.00  0.00    +0.041 C 
ENDROOT
BRANCH   1   5
ATOM      5  O   UNL     1     -28.022  16.677 117.773  0.00  0.00    -0.389 OA
ATOM      6  H   UNL     1     -27.906  16.444 118.705  0.00  0.00    +0.210 HD
ENDBRANCH   1   5
TORSDOF 1
ENDMDL
MODEL 9
REMARK VINA RESULT:      -2.9      4.729      5.257
REMARK  Name = TBU
REMARK  4 active torsions:
REMARK  status: ('A' for Active; 'I' for Inactive)
REMARK    1  A    between atoms: O_1  and  C_2
REMARK    2  A    between atoms: C_2  and  C_3
REMARK    3  A    between atoms: C_2  and  C_4
REMARK    4  A    between atoms: C_2  and  C_5
REMARK                            x       y       z     vdW  Elec       q    Type
REMARK                         _______ _______ _______ _____ _____    ______ ____
ROOT
ATOM      1  C   UNL     1     -26.729  16.689 117.120  0.00  0.00    +0.058 C 
ATOM      2  C   UNL     1     -26.904  16.439 115.621  0.00  0.00    +0.041 C 
ATOM      3  C   UNL     1     -25.837  15.599 117.718  0.00  0.00    +0.041 C 
ATOM      4  C   UNL     1     -26.077  18.057 117.335  0.00  0.00    +0.041 C 
ENDROOT
BRANCH   1   5
ATOM      5  O   UNL     1     -28.006  16.664 117.760  0.00  0.00    -0.389 OA
ATOM      6  H   UNL     1     -28.596  15.972 117.432  0.00  0.00    +0.210 HD
ENDBRANCH   1   5
TORSDOF 1
ENDMDL
