MODEL 1
REMARK VINA RESULT:      -3.1      0.000      0.000
REMARK  Name = ACM
REMARK  1 active torsions:
REMARK  status: ('A' for Active; 'I' for Inactive)
REMARK    1  A    between atoms: C_1  and  C_4
REMARK                            x       y       z     vdW  Elec       q    Type
REMARK                         _______ _______ _______ _____ _____    ______ ____
ROOT
ATOM      1  C   UNL     1     -19.575  14.812  43.061  0.00  0.00    +0.207 C 
ATOM      2  C   UNL     1     -18.787  13.554  42.812  0.00  0.00    +0.109 C 
ATOM      3  N   UNL     1     -19.636  15.769  42.113  0.00  0.00    -0.330 N 
ATOM      4  H   UNL     1     -19.172  15.645  41.271  0.00  0.00    +0.145 HD
ATOM      5  H   UNL     1     -20.144  16.579  42.274  0.00  0.00    +0.145 HD
ATOM      6  O   UNL     1     -20.155  14.965  44.115  0.00  0.00    -0.276 OA
ENDROOT
TORSDOF 0
ENDMDL
MODEL 2
REMARK VINA RESULT:      -3.1     26.920     26.940
REMARK  Name = ACM
REMARK  1 active torsions:
REMARK  status: ('A' for Active; 'I' for Inactive)
REMARK    1  A    between atoms: C_1  and  C_4
REMARK                            x       y       z     vdW  Elec       q    Type
REMARK                         _______ _______ _______ _____ _____    ______ ____
ROOT
ATOM      1  C   UNL     1      -4.245  24.004  22.947  0.00  0.00    +0.207 C 
ATOM      2  C   UNL     1      -3.663  24.934  23.979  0.00  0.00    +0.109 C 
ATOM      3  N   UNL     1      -3.834  24.075  21.666  0.00  0.00    -0.330 N 
ATOM      4  H   UNL     1      -3.162  24.726  21.409  0.00  0.00    +0.145 HD
ATOM      5  H   UNL     1      -4.209  23.476  21.002  0.00  0.00    +0.145 HD
ATOM      6  O   UNL     1      -5.085  23.191  23.270  0.00  0.00    -0.276 OA
ENDROOT
TORSDOF 0
ENDMDL
MODEL 3
REMARK VINA RESULT:      -3.0     28.736     28.798
REMARK  Name = ACM
REMARK  1 active torsions:
REMARK  status: ('A' for Active; 'I' for Inactive)
REMARK    1  A    between atoms: C_1  and  C_4
REMARK                            x       y       z     vdW  Elec       q    Type
REMARK                         _______ _______ _______ _____ _____    ______ ____
ROOT
ATOM      1  C   UNL     1      -2.400  23.218  21.585  0.00  0.00    +0.207 C 
ATOM      2  C   UNL     1      -1.006  23.765  21.428  0.00  0.00    +0.109 C 
ATOM      3  N   UNL     1      -3.465  24.026  21.412  0.00  0.00    -0.330 N 
ATOM      4  H   UNL     1      -3.332  24.959  21.186  0.00  0.00    +0.145 HD
ATOM      5  H   UNL     1      -4.363  23.673  21.513  0.00  0.00    +0.145 HD
ATOM      6  O   UNL     1      -2.564  22.050  21.868  0.00  0.00    -0.276 OA
ENDROOT
TORSDOF 0
ENDMDL
MODEL 4
REMARK VINA RESULT:      -2.8     22.439     22.534
REMARK  Name = ACM
REMARK  1 active torsions:
REMARK  status: ('A' for Active; 'I' for Inactive)
REMARK    1  A    between atoms: C_1  and  C_4
REMARK                            x       y       z     vdW  Elec       q    Type
REMARK                         _______ _______ _______ _____ _____    ______ ____
ROOT
ATOM      1  C   UNL     1      -3.290  30.166  40.638  0.00  0.00    +0.207 C 
ATOM      2  C   UNL     1      -4.737  30.468  40.924  0.00  0.00    +0.109 C 
ATOM      3  N   UNL     1      -2.890  29.916  39.375  0.00  0.00    -0.330 N 
ATOM      4  H   UNL     1      -3.535  29.931  38.651  0.00  0.00    +0.145 HD
ATOM      5  H   UNL     1      -1.958  29.721  39.191  0.00  0.00    +0.145 HD
ATOM      6  O   UNL     1      -2.485  30.148  41.544  0.00  0.00    -0.276 OA
ENDROOT
TORSDOF 0
ENDMDL
MODEL 5
REMARK VINA RESULT:      -2.8      1.686      1.821
REMARK  Name = ACM
REMARK  1 active torsions:
REMARK  status: ('A' for Active; 'I' for Inactive)
REMARK    1  A    between atoms: C_1  and  C_4
REMARK                            x       y       z     vdW  Elec       q    Type
REMARK                         _______ _______ _______ _____ _____    ______ ____
ROOT
ATOM      1  C   UNL     1     -19.903  14.179  43.253  0.00  0.00    +0.207 C 
ATOM      2  C   UNL     1     -19.436  15.320  42.388  0.00  0.00    +0.109 C 
ATOM      3  N   UNL     1     -19.957  12.930  42.750  0.00  0.00    -0.330 N 
ATOM      4  H   UNL     1     -19.695  12.766  41.831  0.00  0.00    +0.145 HD
ATOM      5  H   UNL     1     -20.257  12.195  43.308  0.00  0.00    +0.145 HD
ATOM      6  O   UNL     1     -20.229  14.384  44.403  0.00  0.00    -0.276 OA
ENDROOT
TORSDOF 0
ENDMDL
MODEL 6
REMARK VINA RESULT:      -2.7     25.631     25.742
REMARK  Name = ACM
REMARK  1 active torsions:
REMARK  status: ('A' for Active; 'I' for Inactive)
REMARK    1  A    between atoms: C_1  and  C_4
REMARK                            x       y       z     vdW  Elec       q    Type
REMARK                         _______ _______ _______ _____ _____    ______ ____
ROOT
ATOM      1  C   UNL     1      -1.833   9.651  25.102  0.00  0.00    +0.207 C 
ATOM      2  C   UNL     1      -1.364   9.099  26.422  0.00  0.00    +0.109 C 
ATOM      3  N   UNL     1      -2.448   8.845  24.215  0.00  0.00    -0.330 N 
ATOM      4  H   UNL     1      -2.588   7.909  24.427  0.00  0.00    +0.145 HD
ATOM      5  H   UNL     1      -2.751   9.201  23.365  0.00  0.00    +0.145 HD
ATOM      6  O   UNL     1      -1.658  10.822  24.838  0.00  0.00    -0.276 OA
ENDROOT
TORSDOF 0
ENDMDL
MODEL 7
REMARK VINA RESULT:      -2.5     20.198     20.304
REMARK  Name = ACM
REMARK  1 active torsions:
REMARK  status: ('A' for Active; 'I' for Inactive)
REMARK    1  A    between atoms: C_1  and  C_4
REMARK                            x       y       z     vdW  Elec       q    Type
REMARK                         _______ _______ _______ _____ _____    ______ ____
ROOT
ATOM      1  C   UNL     1      -5.411  18.725  29.094  0.00  0.00    +0.207 C 
ATOM      2  C   UNL     1      -6.490  19.757  29.287  0.00  0.00    +0.109 C 
ATOM      3  N   UNL     1      -4.570  18.816  28.046  0.00  0.00    -0.330 N 
ATOM      4  H   UNL     1      -4.660  19.547  27.415  0.00  0.00    +0.145 HD
ATOM      5  H   UNL     1      -3.875  18.151  27.922  0.00  0.00    +0.145 HD
ATOM      6  O   UNL     1      -5.300  17.811  29.884  0.00  0.00    -0.276 OA
ENDROOT
TORSDOF 0
ENDMDL
MODEL 8
REMARK VINA RESULT:      -2.5     27.280     27.326
REMARK  Name = ACM
REMARK  1 active torsions:
REMARK  status: ('A' for Active; 'I' for Inactive)
REMARK    1  A    between atoms: C_1  and  C_4
REMARK                            x       y       z     vdW  Elec       q    Type
REMARK                         _______ _______ _______ _____ _____    ______ ____
ROOT
ATOM      1  C   UNL     1      -3.471  24.007  23.049  0.00  0.00    +0.207 C 
ATOM      2  C   UNL     1      -2.123  23.708  22.448  0.00  0.00    +0.109 C 
ATOM      3  N   UNL     1      -3.608  24.094  24.387  0.00  0.00    -0.330 N 
ATOM      4  H   UNL     1      -2.838  23.964  24.962  0.00  0.00    +0.145 HD
ATOM      5  H   UNL     1      -4.476  24.287  24.774  0.00  0.00    +0.145 HD
ATOM      6  O   UNL     1      -4.433  24.171  22.329  0.00  0.00    -0.276 OA
ENDROOT
TORSDOF 0
ENDMDL
MODEL 9
REMARK VINA RESULT:      -2.4     29.736     29.802
REMARK  Name = ACM
REMARK  1 active torsions:
REMARK  status: ('A' for Active; 'I' for Inactive)
REMARK    1  A    between atoms: C_1  and  C_4
REMARK                            x       y       z     vdW  Elec       q    Type
REMARK                         _______ _______ _______ _____ _____    ______ ____
ROOT
ATOM      1  C   UNL     1      -1.869  23.262  20.610  0.00  0.00    +0.207 C 
ATOM      2  C   UNL     1      -2.016  23.515  22.086  0.00  0.00    +0.109 C 
ATOM      3  N   UNL     1      -0.665  22.936  20.098  0.00  0.00    -0.330 N 
ATOM      4  H   UNL     1       0.106  22.866  20.682  0.00  0.00    +0.145 HD
ATOM      5  H   UNL     1      -0.571  22.773  19.146  0.00  0.00    +0.145 HD
ATOM      6  O   UNL     1      -2.834  23.351  19.880  0.00  0.00    -0.276 OA
ENDROOT
TORSDOF 0
ENDMDL
