MODEL 1
REMARK VINA RESULT:      -3.0      0.000      0.000
REMARK  Name = ACN
REMARK  2 active torsions:
REMARK  status: ('A' for Active; 'I' for Inactive)
REMARK    1  A    between atoms: C_1  and  C_3
REMARK    2  A    between atoms: C_1  and  C_4
REMARK                            x       y       z     vdW  Elec       q    Type
REMARK                         _______ _______ _______ _____ _____    ______ ____
ROOT
ATOM      1  C   UNL     1      -0.720  22.135  20.227  0.00  0.00    +0.127 C 
ATOM      2  C   UNL     1      -0.795  23.456  20.948  0.00  0.00    +0.085 C 
ATOM      3  C   UNL     1      -0.456  22.099  18.745  0.00  0.00    +0.085 C 
ATOM      4  O   UNL     1      -0.878  21.105  20.838  0.00  0.00    -0.298 OA
ENDROOT
TORSDOF 0
ENDMDL
MODEL 2
REMARK VINA RESULT:      -3.0      0.004      1.846
REMARK  Name = ACN
REMARK  2 active torsions:
REMARK  status: ('A' for Active; 'I' for Inactive)
REMARK    1  A    between atoms: C_1  and  C_3
REMARK    2  A    between atoms: C_1  and  C_4
REMARK                            x       y       z     vdW  Elec       q    Type
REMARK                         _______ _______ _______ _____ _____    ______ ____
ROOT
ATOM      1  C   UNL     1      -0.724  22.137  20.226  0.00  0.00    +0.127 C 
ATOM      2  C   UNL     1      -0.457  22.102  18.744  0.00  0.00    +0.085 C 
ATOM      3  C   UNL     1      -0.798  23.458  20.948  0.00  0.00    +0.085 C 
ATOM      4  O   UNL     1      -0.872  21.106  20.838  0.00  0.00    -0.298 OA
ENDROOT
TORSDOF 0
ENDMDL
MODEL 3
REMARK VINA RESULT:      -2.8      1.771      1.932
REMARK  Name = ACN
REMARK  2 active torsions:
REMARK  status: ('A' for Active; 'I' for Inactive)
REMARK    1  A    between atoms: C_1  and  C_3
REMARK    2  A    between atoms: C_1  and  C_4
REMARK                            x       y       z     vdW  Elec       q    Type
REMARK                         _______ _______ _______ _____ _____    ______ ____
ROOT
ATOM      1  C   UNL     1      -1.202  23.221  20.738  0.00  0.00    +0.127 C 
ATOM      2  C   UNL     1      -2.688  23.320  20.508  0.00  0.00    +0.085 C 
ATOM      3  C   UNL     1      -0.359  22.342  19.851  0.00  0.00    +0.085 C 
ATOM      4  O   UNL     1      -0.688  23.843  21.637  0.00  0.00    -0.298 OA
ENDROOT
TORSDOF 0
ENDMDL
MODEL 4
REMARK VINA RESULT:      -2.8      1.801      2.378
REMARK  Name = ACN
REMARK  2 active torsions:
REMARK  status: ('A' for Active; 'I' for Inactive)
REMARK    1  A    between atoms: C_1  and  C_3
REMARK    2  A    between atoms: C_1  and  C_4
REMARK                            x       y       z     vdW  Elec       q    Type
REMARK                         _______ _______ _______ _____ _____    ______ ____
ROOT
ATOM      1  C   UNL     1      -1.216  23.263  20.776  0.00  0.00    +0.127 C 
ATOM      2  C   UNL     1      -0.352  22.386  19.907  0.00  0.00    +0.085 C 
ATOM      3  C   UNL     1      -2.703  23.329  20.538  0.00  0.00    +0.085 C 
ATOM      4  O   UNL     1      -0.717  23.916  21.660  0.00  0.00    -0.298 OA
ENDROOT
TORSDOF 0
ENDMDL
MODEL 5
REMARK VINA RESULT:      -2.8     30.637     31.063
REMARK  Name = ACN
REMARK  2 active torsions:
REMARK  status: ('A' for Active; 'I' for Inactive)
REMARK    1  A    between atoms: C_1  and  C_3
REMARK    2  A    between atoms: C_1  and  C_4
REMARK                            x       y       z     vdW  Elec       q    Type
REMARK                         _______ _______ _______ _____ _____    ______ ____
ROOT
ATOM      1  C   UNL     1     -19.859  14.420  43.390  0.00  0.00    +0.127 C 
ATOM      2  C   UNL     1     -19.804  12.930  43.170  0.00  0.00    +0.085 C 
ATOM      3  C   UNL     1     -19.402  15.360  42.306  0.00  0.00    +0.085 C 
ATOM      4  O   UNL     1     -20.266  14.860  44.439  0.00  0.00    -0.298 OA
ENDROOT
TORSDOF 0
ENDMDL
MODEL 6
REMARK VINA RESULT:      -2.8      4.218      5.086
REMARK  Name = ACN
REMARK  2 active torsions:
REMARK  status: ('A' for Active; 'I' for Inactive)
REMARK    1  A    between atoms: C_1  and  C_3
REMARK    2  A    between atoms: C_1  and  C_4
REMARK                            x       y       z     vdW  Elec       q    Type
REMARK                         _______ _______ _______ _____ _____    ______ ____
ROOT
ATOM      1  C   UNL     1      -4.187  23.881  22.945  0.00  0.00    +0.127 C 
ATOM      2  C   UNL     1      -3.420  23.479  21.713  0.00  0.00    +0.085 C 
ATOM      3  C   UNL     1      -3.768  25.096  23.732  0.00  0.00    +0.085 C 
ATOM      4  O   UNL     1      -5.136  23.226  23.306  0.00  0.00    -0.298 OA
ENDROOT
TORSDOF 0
ENDMDL
MODEL 7
REMARK VINA RESULT:      -2.8      2.056      2.440
REMARK  Name = ACN
REMARK  2 active torsions:
REMARK  status: ('A' for Active; 'I' for Inactive)
REMARK    1  A    between atoms: C_1  and  C_3
REMARK    2  A    between atoms: C_1  and  C_4
REMARK                            x       y       z     vdW  Elec       q    Type
REMARK                         _______ _______ _______ _____ _____    ______ ____
ROOT
ATOM      1  C   UNL     1      -2.020  23.013  21.207  0.00  0.00    +0.127 C 
ATOM      2  C   UNL     1      -2.840  23.369  19.994  0.00  0.00    +0.085 C 
ATOM      3  C   UNL     1      -0.820  23.846  21.577  0.00  0.00    +0.085 C 
ATOM      4  O   UNL     1      -2.322  22.057  21.881  0.00  0.00    -0.298 OA
ENDROOT
TORSDOF 0
ENDMDL
MODEL 8
REMARK VINA RESULT:      -2.7      2.220      3.275
REMARK  Name = ACN
REMARK  2 active torsions:
REMARK  status: ('A' for Active; 'I' for Inactive)
REMARK    1  A    between atoms: C_1  and  C_3
REMARK    2  A    between atoms: C_1  and  C_4
REMARK                            x       y       z     vdW  Elec       q    Type
REMARK                         _______ _______ _______ _____ _____    ______ ____
ROOT
ATOM      1  C   UNL     1      -2.298  23.258  21.986  0.00  0.00    +0.127 C 
ATOM      2  C   UNL     1      -1.069  23.413  21.128  0.00  0.00    +0.085 C 
ATOM      3  C   UNL     1      -2.437  24.059  23.255  0.00  0.00    +0.085 C 
ATOM      4  O   UNL     1      -3.169  22.487  21.660  0.00  0.00    -0.298 OA
ENDROOT
TORSDOF 0
ENDMDL
MODEL 9
REMARK VINA RESULT:      -2.5     30.145     30.438
REMARK  Name = ACN
REMARK  2 active torsions:
REMARK  status: ('A' for Active; 'I' for Inactive)
REMARK    1  A    between atoms: C_1  and  C_3
REMARK    2  A    between atoms: C_1  and  C_4
REMARK                            x       y       z     vdW  Elec       q    Type
REMARK                         _______ _______ _______ _____ _____    ______ ____
ROOT
ATOM      1  C   UNL     1     -19.133  13.912  43.033  0.00  0.00    +0.127 C 
ATOM      2  C   UNL     1     -19.547  15.226  42.423  0.00  0.00    +0.085 C 
ATOM      3  C   UNL     1     -17.922  13.185  42.507  0.00  0.00    +0.085 C 
ATOM      4  O   UNL     1     -19.774  13.438  43.940  0.00  0.00    -0.298 OA
ENDROOT
TORSDOF 0
ENDMDL
