MODEL 1
REMARK VINA RESULT:      -4.0      0.000      0.000
REMARK  Name = BNZ
REMARK  0 active torsions:
REMARK  status: ('A' for Active; 'I' for Inactive)
REMARK                            x       y       z     vdW  Elec       q    Type
REMARK                         _______ _______ _______ _____ _____    ______ ____
ROOT
ATOM      1  C   UNL     1      -2.550  22.874  19.296  0.00  0.00    +0.000 A 
ATOM      2  C   UNL     1      -2.877  23.411  20.527  0.00  0.00    +0.000 A 
ATOM      3  C   UNL     1      -1.905  23.556  21.499  0.00  0.00    +0.000 A 
ATOM      4  C   UNL     1      -0.606  23.159  21.241  0.00  0.00    +0.000 A 
ATOM      5  C   UNL     1      -0.279  22.621  20.011  0.00  0.00    +0.000 A 
ATOM      6  C   UNL     1      -1.251  22.478  19.038  0.00  0.00    +0.000 A 
ENDROOT
TORSDOF 0
ENDMDL
MODEL 2
REMARK VINA RESULT:      -4.0      0.113      2.424
REMARK  Name = BNZ
REMARK  0 active torsions:
REMARK  status: ('A' for Active; 'I' for Inactive)
REMARK                            x       y       z     vdW  Elec       q    Type
REMARK                         _______ _______ _______ _____ _____    ______ ____
ROOT
ATOM      1  C   UNL     1      -1.825  23.515  21.428  0.00  0.00    +0.000 A 
ATOM      2  C   UNL     1      -0.547  23.086  21.124  0.00  0.00    +0.000 A 
ATOM      3  C   UNL     1      -0.276  22.548  19.879  0.00  0.00    +0.000 A 
ATOM      4  C   UNL     1      -1.284  22.437  18.941  0.00  0.00    +0.000 A 
ATOM      5  C   UNL     1      -2.562  22.865  19.245  0.00  0.00    +0.000 A 
ATOM      6  C   UNL     1      -2.833  23.405  20.489  0.00  0.00    +0.000 A 
ENDROOT
TORSDOF 0
ENDMDL
MODEL 3
REMARK VINA RESULT:      -4.0      0.110      1.957
REMARK  Name = BNZ
REMARK  0 active torsions:
REMARK  status: ('A' for Active; 'I' for Inactive)
REMARK                            x       y       z     vdW  Elec       q    Type
REMARK                         _______ _______ _______ _____ _____    ______ ____
ROOT
ATOM      1  C   UNL     1      -2.598  22.948  19.406  0.00  0.00    +0.000 A 
ATOM      2  C   UNL     1      -1.310  22.548  19.106  0.00  0.00    +0.000 A 
ATOM      3  C   UNL     1      -0.311  22.661  20.056  0.00  0.00    +0.000 A 
ATOM      4  C   UNL     1      -0.602  23.178  21.304  0.00  0.00    +0.000 A 
ATOM      5  C   UNL     1      -1.889  23.579  21.604  0.00  0.00    +0.000 A 
ATOM      6  C   UNL     1      -2.888  23.464  20.655  0.00  0.00    +0.000 A 
ENDROOT
TORSDOF 0
ENDMDL
MODEL 4
REMARK VINA RESULT:      -3.9      0.987      2.460
REMARK  Name = BNZ
REMARK  0 active torsions:
REMARK  status: ('A' for Active; 'I' for Inactive)
REMARK                            x       y       z     vdW  Elec       q    Type
REMARK                         _______ _______ _______ _____ _____    ______ ____
ROOT
ATOM      1  C   UNL     1      -0.824  23.335  20.541  0.00  0.00    +0.000 A 
ATOM      2  C   UNL     1      -2.060  23.067  19.984  0.00  0.00    +0.000 A 
ATOM      3  C   UNL     1      -3.209  23.238  20.734  0.00  0.00    +0.000 A 
ATOM      4  C   UNL     1      -3.121  23.675  22.042  0.00  0.00    +0.000 A 
ATOM      5  C   UNL     1      -1.885  23.942  22.600  0.00  0.00    +0.000 A 
ATOM      6  C   UNL     1      -0.736  23.773  21.849  0.00  0.00    +0.000 A 
ENDROOT
TORSDOF 0
ENDMDL
MODEL 5
REMARK VINA RESULT:      -3.9      1.179      2.512
REMARK  Name = BNZ
REMARK  0 active torsions:
REMARK  status: ('A' for Active; 'I' for Inactive)
REMARK                            x       y       z     vdW  Elec       q    Type
REMARK                         _______ _______ _______ _____ _____    ______ ____
ROOT
ATOM      1  C   UNL     1      -3.090  23.868  22.576  0.00  0.00    +0.000 A 
ATOM      2  C   UNL     1      -3.541  23.455  21.338  0.00  0.00    +0.000 A 
ATOM      3  C   UNL     1      -2.639  23.217  20.317  0.00  0.00    +0.000 A 
ATOM      4  C   UNL     1      -1.286  23.397  20.536  0.00  0.00    +0.000 A 
ATOM      5  C   UNL     1      -0.835  23.811  21.774  0.00  0.00    +0.000 A 
ATOM      6  C   UNL     1      -1.737  24.047  22.796  0.00  0.00    +0.000 A 
ENDROOT
TORSDOF 0
ENDMDL
MODEL 6
REMARK VINA RESULT:      -3.5      8.471      9.812
REMARK  Name = BNZ
REMARK  0 active torsions:
REMARK  status: ('A' for Active; 'I' for Inactive)
REMARK                            x       y       z     vdW  Elec       q    Type
REMARK                         _______ _______ _______ _____ _____    ______ ____
ROOT
ATOM      1  C   UNL     1      -0.042  24.356  30.931  0.00  0.00    +0.000 A 
ATOM      2  C   UNL     1      -1.325  24.023  30.540  0.00  0.00    +0.000 A 
ATOM      3  C   UNL     1      -1.755  24.317  29.259  0.00  0.00    +0.000 A 
ATOM      4  C   UNL     1      -0.902  24.947  28.372  0.00  0.00    +0.000 A 
ATOM      5  C   UNL     1       0.380  25.280  28.764  0.00  0.00    +0.000 A 
ATOM      6  C   UNL     1       0.811  24.985  30.044  0.00  0.00    +0.000 A 
ENDROOT
TORSDOF 0
ENDMDL
MODEL 7
REMARK VINA RESULT:      -3.5      8.406      9.694
REMARK  Name = BNZ
REMARK  0 active torsions:
REMARK  status: ('A' for Active; 'I' for Inactive)
REMARK                            x       y       z     vdW  Elec       q    Type
REMARK                         _______ _______ _______ _____ _____    ______ ____
ROOT
ATOM      1  C   UNL     1      -1.771  24.329  29.182  0.00  0.00    +0.000 A 
ATOM      2  C   UNL     1      -0.903  24.949  28.303  0.00  0.00    +0.000 A 
ATOM      3  C   UNL     1       0.376  25.280  28.712  0.00  0.00    +0.000 A 
ATOM      4  C   UNL     1       0.784  24.994  30.001  0.00  0.00    +0.000 A 
ATOM      5  C   UNL     1      -0.084  24.375  30.880  0.00  0.00    +0.000 A 
ATOM      6  C   UNL     1      -1.362  24.042  30.471  0.00  0.00    +0.000 A 
ENDROOT
TORSDOF 0
ENDMDL
MODEL 8
REMARK VINA RESULT:      -3.4     16.929     17.216
REMARK  Name = BNZ
REMARK  0 active torsions:
REMARK  status: ('A' for Active; 'I' for Inactive)
REMARK                            x       y       z     vdW  Elec       q    Type
REMARK                         _______ _______ _______ _____ _____    ______ ____
ROOT
ATOM      1  C   UNL     1      -1.610   7.851  25.793  0.00  0.00    +0.000 A 
ATOM      2  C   UNL     1      -0.873   8.087  26.937  0.00  0.00    +0.000 A 
ATOM      3  C   UNL     1       0.075   7.169  27.352  0.00  0.00    +0.000 A 
ATOM      4  C   UNL     1       0.281   6.013  26.623  0.00  0.00    +0.000 A 
ATOM      5  C   UNL     1      -0.457   5.776  25.479  0.00  0.00    +0.000 A 
ATOM      6  C   UNL     1      -1.403   6.695  25.063  0.00  0.00    +0.000 A 
ENDROOT
TORSDOF 0
ENDMDL
MODEL 9
REMARK VINA RESULT:      -3.4     16.920     17.298
REMARK  Name = BNZ
REMARK  0 active torsions:
REMARK  status: ('A' for Active; 'I' for Inactive)
REMARK                            x       y       z     vdW  Elec       q    Type
REMARK                         _______ _______ _______ _____ _____    ______ ____
ROOT
ATOM      1  C   UNL     1      -0.902   8.108  26.916  0.00  0.00    +0.000 A 
ATOM      2  C   UNL     1       0.051   7.211  27.357  0.00  0.00    +0.000 A 
ATOM      3  C   UNL     1       0.284   6.046  26.649  0.00  0.00    +0.000 A 
ATOM      4  C   UNL     1      -0.440   5.778  25.503  0.00  0.00    +0.000 A 
ATOM      5  C   UNL     1      -1.394   6.675  25.062  0.00  0.00    +0.000 A 
ATOM      6  C   UNL     1      -1.626   7.841  25.769  0.00  0.00    +0.000 A 
ENDROOT
TORSDOF 0
ENDMDL
