MODEL 1
REMARK VINA RESULT:      -2.4      0.000      0.000
REMARK  Name = CCN
REMARK  1 active torsions:
REMARK  status: ('A' for Active; 'I' for Inactive)
REMARK    1  A    between atoms: C_2  and  C_3
REMARK                            x       y       z     vdW  Elec       q    Type
REMARK                         _______ _______ _______ _____ _____    ______ ____
ROOT
ATOM      1  N   UNL     1     -20.283  14.441  44.672  0.00  0.00    -0.197 NA
ATOM      2  C   UNL     1     -19.886  14.779  43.663  0.00  0.00    +0.059 C 
ATOM      3  C   UNL     1     -19.371  15.217  42.356  0.00  0.00    +0.138 C 
ENDROOT
TORSDOF 0
ENDMDL
MODEL 2
REMARK VINA RESULT:      -2.4     31.641     31.931
REMARK  Name = CCN
REMARK  1 active torsions:
REMARK  status: ('A' for Active; 'I' for Inactive)
REMARK    1  A    between atoms: C_2  and  C_3
REMARK                            x       y       z     vdW  Elec       q    Type
REMARK                         _______ _______ _______ _____ _____    ______ ____
ROOT
ATOM      1  N   UNL     1      -0.221  21.502  18.348  0.00  0.00    -0.197 NA
ATOM      2  C   UNL     1      -0.419  22.114  19.284  0.00  0.00    +0.059 C 
ATOM      3  C   UNL     1      -0.677  22.906  20.497  0.00  0.00    +0.138 C 
ENDROOT
TORSDOF 0
ENDMDL
MODEL 3
REMARK VINA RESULT:      -2.3     22.263     22.493
REMARK  Name = CCN
REMARK  1 active torsions:
REMARK  status: ('A' for Active; 'I' for Inactive)
REMARK    1  A    between atoms: C_2  and  C_3
REMARK                            x       y       z     vdW  Elec       q    Type
REMARK                         _______ _______ _______ _____ _____    ______ ____
ROOT
ATOM      1  N   UNL     1      -2.628  30.044  41.422  0.00  0.00    -0.197 NA
ATOM      2  C   UNL     1      -3.665  30.235  40.999  0.00  0.00    +0.059 C 
ATOM      3  C   UNL     1      -5.008  30.482  40.450  0.00  0.00    +0.138 C 
ENDROOT
TORSDOF 0
ENDMDL
MODEL 4
REMARK VINA RESULT:      -2.2     29.145     29.549
REMARK  Name = CCN
REMARK  1 active torsions:
REMARK  status: ('A' for Active; 'I' for Inactive)
REMARK    1  A    between atoms: C_2  and  C_3
REMARK                            x       y       z     vdW  Elec       q    Type
REMARK                         _______ _______ _______ _____ _____    ______ ____
ROOT
ATOM      1  N   UNL     1      -3.245  22.608  21.734  0.00  0.00    -0.197 NA
ATOM      2  C   UNL     1      -2.193  22.921  21.440  0.00  0.00    +0.059 C 
ATOM      3  C   UNL     1      -0.830  23.326  21.060  0.00  0.00    +0.138 C 
ENDROOT
TORSDOF 0
ENDMDL
MODEL 5
REMARK VINA RESULT:      -2.1     26.929     27.144
REMARK  Name = CCN
REMARK  1 active torsions:
REMARK  status: ('A' for Active; 'I' for Inactive)
REMARK    1  A    between atoms: C_2  and  C_3
REMARK                            x       y       z     vdW  Elec       q    Type
REMARK                         _______ _______ _______ _____ _____    ______ ____
ROOT
ATOM      1  N   UNL     1      -4.953  23.302  23.218  0.00  0.00    -0.197 NA
ATOM      2  C   UNL     1      -4.224  24.118  23.520  0.00  0.00    +0.059 C 
ATOM      3  C   UNL     1      -3.279  25.177  23.912  0.00  0.00    +0.138 C 
ENDROOT
TORSDOF 0
ENDMDL
MODEL 6
REMARK VINA RESULT:      -2.1      2.589      2.830
REMARK  Name = CCN
REMARK  1 active torsions:
REMARK  status: ('A' for Active; 'I' for Inactive)
REMARK    1  A    between atoms: C_2  and  C_3
REMARK                            x       y       z     vdW  Elec       q    Type
REMARK                         _______ _______ _______ _____ _____    ______ ____
ROOT
ATOM      1  N   UNL     1     -18.538  16.454  41.234  0.00  0.00    -0.197 NA
ATOM      2  C   UNL     1     -19.054  15.736  41.948  0.00  0.00    +0.059 C 
ATOM      3  C   UNL     1     -19.722  14.806  42.873  0.00  0.00    +0.138 C 
ENDROOT
TORSDOF 0
ENDMDL
MODEL 7
REMARK VINA RESULT:      -1.9     25.979     26.010
REMARK  Name = CCN
REMARK  1 active torsions:
REMARK  status: ('A' for Active; 'I' for Inactive)
REMARK    1  A    between atoms: C_2  and  C_3
REMARK                            x       y       z     vdW  Elec       q    Type
REMARK                         _______ _______ _______ _____ _____    ______ ____
ROOT
ATOM      1  N   UNL     1      -1.657  10.244  25.616  0.00  0.00    -0.197 NA
ATOM      2  C   UNL     1      -1.362   9.324  26.214  0.00  0.00    +0.059 C 
ATOM      3  C   UNL     1      -0.981   8.132  26.989  0.00  0.00    +0.138 C 
ENDROOT
TORSDOF 0
ENDMDL
MODEL 8
REMARK VINA RESULT:      -1.8     11.040     11.094
REMARK  Name = CCN
REMARK  1 active torsions:
REMARK  status: ('A' for Active; 'I' for Inactive)
REMARK    1  A    between atoms: C_2  and  C_3
REMARK                            x       y       z     vdW  Elec       q    Type
REMARK                         _______ _______ _______ _____ _____    ______ ____
ROOT
ATOM      1  N   UNL     1     -16.970   3.866  39.093  0.00  0.00    -0.197 NA
ATOM      2  C   UNL     1     -17.383   4.922  39.155  0.00  0.00    +0.059 C 
ATOM      3  C   UNL     1     -17.918   6.291  39.236  0.00  0.00    +0.138 C 
ENDROOT
TORSDOF 0
ENDMDL
MODEL 9
REMARK VINA RESULT:      -1.8     17.471     17.618
REMARK  Name = CCN
REMARK  1 active torsions:
REMARK  status: ('A' for Active; 'I' for Inactive)
REMARK    1  A    between atoms: C_2  and  C_3
REMARK                            x       y       z     vdW  Elec       q    Type
REMARK                         _______ _______ _______ _____ _____    ______ ____
ROOT
ATOM      1  N   UNL     1      -3.261  21.073  40.811  0.00  0.00    -0.197 NA
ATOM      2  C   UNL     1      -3.420  20.685  41.866  0.00  0.00    +0.059 C 
ATOM      3  C   UNL     1      -3.626  20.181  43.234  0.00  0.00    +0.138 C 
ENDROOT
TORSDOF 0
ENDMDL
