REMARK  Name = CCN
REMARK  1 active torsions:
REMARK  status: ('A' for Active; 'I' for Inactive)
REMARK    1  A    between atoms: C_2  and  C_3
REMARK                            x       y       z     vdW  Elec       q    Type
REMARK                         _______ _______ _______ _____ _____    ______ ____
ROOT
ATOM      1  N   UNL     1      -1.314   0.000   0.000  0.00  0.00    -0.197 NA
ATOM      2  C   UNL     1      -0.178   0.000   0.000  0.00  0.00    +0.059 C 
ATOM      3  C   UNL     1       1.294   0.000   0.000  0.00  0.00    +0.138 C 
ENDROOT
TORSDOF 0
