MODEL 1
REMARK VINA RESULT:      -2.9      0.000      0.000
REMARK  Name = DMF
REMARK  2 active torsions:
REMARK  status: ('A' for Active; 'I' for Inactive)
REMARK    1  A    between atoms: C_1  and  N_5
REMARK    2  A    between atoms: C_2  and  N_5
REMARK                            x       y       z     vdW  Elec       q    Type
REMARK                         _______ _______ _______ _____ _____    ______ ____
ROOT
ATOM      1  C   UNL     1      -0.612  22.583  19.773  0.00  0.00    +0.131 C 
ATOM      2  N   UNL     1      -1.525  23.294  20.671  0.00  0.00    -0.310 N 
ATOM      3  C   UNL     1      -2.843  23.335  20.394  0.00  0.00    +0.327 C 
ATOM      4  O   UNL     1      -3.600  23.924  21.138  0.00  0.00    -0.279 OA
ATOM      5  C   UNL     1      -1.006  23.958  21.868  0.00  0.00    +0.131 C 
ENDROOT
TORSDOF 0
ENDMDL
MODEL 2
REMARK VINA RESULT:      -2.8      1.892      2.700
REMARK  Name = DMF
REMARK  2 active torsions:
REMARK  status: ('A' for Active; 'I' for Inactive)
REMARK    1  A    between atoms: C_1  and  N_5
REMARK    2  A    between atoms: C_2  and  N_5
REMARK                            x       y       z     vdW  Elec       q    Type
REMARK                         _______ _______ _______ _____ _____    ______ ____
ROOT
ATOM      1  C   UNL     1      -0.820  23.869  21.671  0.00  0.00    +0.131 C 
ATOM      2  N   UNL     1      -1.296  23.232  20.441  0.00  0.00    -0.310 N 
ATOM      3  C   UNL     1      -0.428  22.582  19.642  0.00  0.00    +0.327 C 
ATOM      4  O   UNL     1      -0.821  22.054  18.622  0.00  0.00    -0.279 OA
ATOM      5  C   UNL     1      -2.713  23.301  20.081  0.00  0.00    +0.131 C 
ENDROOT
TORSDOF 0
ENDMDL
MODEL 3
REMARK VINA RESULT:      -2.8      1.443      2.132
REMARK  Name = DMF
REMARK  2 active torsions:
REMARK  status: ('A' for Active; 'I' for Inactive)
REMARK    1  A    between atoms: C_1  and  N_5
REMARK    2  A    between atoms: C_2  and  N_5
REMARK                            x       y       z     vdW  Elec       q    Type
REMARK                         _______ _______ _______ _____ _____    ______ ____
ROOT
ATOM      1  C   UNL     1      -1.133  23.775  21.816  0.00  0.00    +0.131 C 
ATOM      2  N   UNL     1      -2.567  23.690  21.529  0.00  0.00    -0.310 N 
ATOM      3  C   UNL     1      -3.463  23.885  22.516  0.00  0.00    +0.327 C 
ATOM      4  O   UNL     1      -4.651  23.815  22.280  0.00  0.00    -0.279 OA
ATOM      5  C   UNL     1      -3.026  23.394  20.171  0.00  0.00    +0.131 C 
ENDROOT
TORSDOF 0
ENDMDL
MODEL 4
REMARK VINA RESULT:      -2.8      1.355      2.005
REMARK  Name = DMF
REMARK  2 active torsions:
REMARK  status: ('A' for Active; 'I' for Inactive)
REMARK    1  A    between atoms: C_1  and  N_5
REMARK    2  A    between atoms: C_2  and  N_5
REMARK                            x       y       z     vdW  Elec       q    Type
REMARK                         _______ _______ _______ _____ _____    ______ ____
ROOT
ATOM      1  C   UNL     1      -2.265  23.780  22.819  0.00  0.00    +0.131 C 
ATOM      2  N   UNL     1      -2.044  23.477  21.403  0.00  0.00    -0.310 N 
ATOM      3  C   UNL     1      -3.081  23.487  20.543  0.00  0.00    +0.327 C 
ATOM      4  O   UNL     1      -2.898  23.237  19.370  0.00  0.00    -0.279 OA
ATOM      5  C   UNL     1      -0.697  23.163  20.923  0.00  0.00    +0.131 C 
ENDROOT
TORSDOF 0
ENDMDL
MODEL 5
REMARK VINA RESULT:      -2.6      1.885      2.913
REMARK  Name = DMF
REMARK  2 active torsions:
REMARK  status: ('A' for Active; 'I' for Inactive)
REMARK    1  A    between atoms: C_1  and  N_5
REMARK    2  A    between atoms: C_2  and  N_5
REMARK                            x       y       z     vdW  Elec       q    Type
REMARK                         _______ _______ _______ _____ _____    ______ ____
ROOT
ATOM      1  C   UNL     1      -2.432  24.103  23.430  0.00  0.00    +0.131 C 
ATOM      2  N   UNL     1      -2.135  23.650  22.069  0.00  0.00    -0.310 N 
ATOM      3  C   UNL     1      -0.881  23.747  21.587  0.00  0.00    +0.327 C 
ATOM      4  O   UNL     1      -0.634  23.373  20.459  0.00  0.00    -0.279 OA
ATOM      5  C   UNL     1      -3.201  23.094  21.233  0.00  0.00    +0.131 C 
ENDROOT
TORSDOF 0
ENDMDL
MODEL 6
REMARK VINA RESULT:      -2.6      2.132      2.443
REMARK  Name = DMF
REMARK  2 active torsions:
REMARK  status: ('A' for Active; 'I' for Inactive)
REMARK    1  A    between atoms: C_1  and  N_5
REMARK    2  A    between atoms: C_2  and  N_5
REMARK                            x       y       z     vdW  Elec       q    Type
REMARK                         _______ _______ _______ _____ _____    ______ ____
ROOT
ATOM      1  C   UNL     1      -2.999  23.453  20.637  0.00  0.00    +0.131 C 
ATOM      2  N   UNL     1      -3.181  23.631  22.080  0.00  0.00    -0.310 N 
ATOM      3  C   UNL     1      -4.409  23.513  22.621  0.00  0.00    +0.327 C 
ATOM      4  O   UNL     1      -4.561  23.660  23.816  0.00  0.00    -0.279 OA
ATOM      5  C   UNL     1      -2.030  23.936  22.931  0.00  0.00    +0.131 C 
ENDROOT
TORSDOF 0
ENDMDL
MODEL 7
REMARK VINA RESULT:      -2.5     15.390     15.513
REMARK  Name = DMF
REMARK  2 active torsions:
REMARK  status: ('A' for Active; 'I' for Inactive)
REMARK    1  A    between atoms: C_1  and  N_5
REMARK    2  A    between atoms: C_2  and  N_5
REMARK                            x       y       z     vdW  Elec       q    Type
REMARK                         _______ _______ _______ _____ _____    ______ ____
ROOT
ATOM      1  C   UNL     1      -1.572   7.703  27.764  0.00  0.00    +0.131 C 
ATOM      2  N   UNL     1      -1.967   9.015  27.245  0.00  0.00    -0.310 N 
ATOM      3  C   UNL     1      -1.491   9.440  26.059  0.00  0.00    +0.327 C 
ATOM      4  O   UNL     1      -1.817  10.526  25.629  0.00  0.00    -0.279 OA
ATOM      5  C   UNL     1      -2.878   9.863  28.016  0.00  0.00    +0.131 C 
ENDROOT
TORSDOF 0
ENDMDL
MODEL 8
REMARK VINA RESULT:      -2.5     19.674     20.468
REMARK  Name = DMF
REMARK  2 active torsions:
REMARK  status: ('A' for Active; 'I' for Inactive)
REMARK    1  A    between atoms: C_1  and  N_5
REMARK    2  A    between atoms: C_2  and  N_5
REMARK                            x       y       z     vdW  Elec       q    Type
REMARK                         _______ _______ _______ _____ _____    ______ ____
ROOT
ATOM      1  C   UNL     1      -5.907  30.280  39.353  0.00  0.00    +0.131 C 
ATOM      2  N   UNL     1      -4.514  29.914  39.620  0.00  0.00    -0.310 N 
ATOM      3  C   UNL     1      -4.009  30.048  40.862  0.00  0.00    +0.327 C 
ATOM      4  O   UNL     1      -2.856  29.745  41.083  0.00  0.00    -0.279 OA
ATOM      5  C   UNL     1      -3.670  29.403  38.537  0.00  0.00    +0.131 C 
ENDROOT
TORSDOF 0
ENDMDL
MODEL 9
REMARK VINA RESULT:      -2.5     15.561     15.811
REMARK  Name = DMF
REMARK  2 active torsions:
REMARK  status: ('A' for Active; 'I' for Inactive)
REMARK    1  A    between atoms: C_1  and  N_5
REMARK    2  A    between atoms: C_2  and  N_5
REMARK                            x       y       z     vdW  Elec       q    Type
REMARK                         _______ _______ _______ _____ _____    ______ ____
ROOT
ATOM      1  C   UNL     1      -2.505   7.277  26.884  0.00  0.00    +0.131 C 
ATOM      2  N   UNL     1      -2.051   8.205  25.846  0.00  0.00    -0.310 N 
ATOM      3  C   UNL     1      -1.712   9.467  26.173  0.00  0.00    +0.327 C 
ATOM      4  O   UNL     1      -1.336  10.236  25.314  0.00  0.00    -0.279 OA
ATOM      5  C   UNL     1      -1.967   7.762  24.453  0.00  0.00    +0.131 C 
ENDROOT
TORSDOF 0
ENDMDL
