MODEL 1
REMARK VINA RESULT:      -2.4      0.000      0.000
REMARK  Name = EOH
REMARK  2 active torsions:
REMARK  status: ('A' for Active; 'I' for Inactive)
REMARK    1  A    between atoms: C_1  and  C_2
REMARK    2  A    between atoms: C_1  and  O_3
REMARK                            x       y       z     vdW  Elec       q    Type
REMARK                         _______ _______ _______ _____ _____    ______ ____
ROOT
ATOM      1  C   UNL     1     -19.936  14.064  43.696  0.00  0.00    +0.152 C 
ATOM      2  C   UNL     1     -19.580  15.137  42.666  0.00  0.00    +0.034 C 
ENDROOT
BRANCH   1   3
ATOM      3  O   UNL     1     -20.436  14.689  44.880  0.00  0.00    -0.395 OA
ATOM      4  H   UNL     1     -21.176  14.219  45.290  0.00  0.00    +0.209 HD
ENDBRANCH   1   3
TORSDOF 1
ENDMDL
MODEL 2
REMARK VINA RESULT:      -2.3     29.953     30.095
REMARK  Name = EOH
REMARK  2 active torsions:
REMARK  status: ('A' for Active; 'I' for Inactive)
REMARK    1  A    between atoms: C_1  and  C_2
REMARK    2  A    between atoms: C_1  and  O_3
REMARK                            x       y       z     vdW  Elec       q    Type
REMARK                         _______ _______ _______ _____ _____    ______ ____
ROOT
ATOM      1  C   UNL     1      -2.719  23.348  20.490  0.00  0.00    +0.152 C 
ATOM      2  C   UNL     1      -1.315  23.480  21.083  0.00  0.00    +0.034 C 
ENDROOT
BRANCH   1   3
ATOM      3  O   UNL     1      -3.643  24.091  21.289  0.00  0.00    -0.395 OA
ATOM      4  H   UNL     1      -4.269  24.620  20.775  0.00  0.00    +0.209 HD
ENDBRANCH   1   3
TORSDOF 1
ENDMDL
MODEL 3
REMARK VINA RESULT:      -2.2     26.968     27.388
REMARK  Name = EOH
REMARK  2 active torsions:
REMARK  status: ('A' for Active; 'I' for Inactive)
REMARK    1  A    between atoms: C_1  and  C_2
REMARK    2  A    between atoms: C_1  and  O_3
REMARK                            x       y       z     vdW  Elec       q    Type
REMARK                         _______ _______ _______ _____ _____    ______ ____
ROOT
ATOM      1  C   UNL     1      -4.457  23.956  23.305  0.00  0.00    +0.152 C 
ATOM      2  C   UNL     1      -3.693  23.598  22.029  0.00  0.00    +0.034 C 
ENDROOT
BRANCH   1   3
ATOM      3  O   UNL     1      -5.430  22.945  23.576  0.00  0.00    -0.395 OA
ATOM      4  H   UNL     1      -5.118  22.247  24.170  0.00  0.00    +0.209 HD
ENDBRANCH   1   3
TORSDOF 1
ENDMDL
MODEL 4
REMARK VINA RESULT:      -2.2     17.739     17.851
REMARK  Name = EOH
REMARK  2 active torsions:
REMARK  status: ('A' for Active; 'I' for Inactive)
REMARK    1  A    between atoms: C_1  and  C_2
REMARK    2  A    between atoms: C_1  and  O_3
REMARK                            x       y       z     vdW  Elec       q    Type
REMARK                         _______ _______ _______ _____ _____    ______ ____
ROOT
ATOM      1  C   UNL     1      -3.531  21.171  41.849  0.00  0.00    +0.152 C 
ATOM      2  C   UNL     1      -3.382  20.096  42.926  0.00  0.00    +0.034 C 
ENDROOT
BRANCH   1   3
ATOM      3  O   UNL     1      -3.333  20.584  40.561  0.00  0.00    -0.395 OA
ATOM      4  H   UNL     1      -2.467  20.772  40.172  0.00  0.00    +0.209 HD
ENDBRANCH   1   3
TORSDOF 1
ENDMDL
MODEL 5
REMARK VINA RESULT:      -2.2      2.065      2.150
REMARK  Name = EOH
REMARK  2 active torsions:
REMARK  status: ('A' for Active; 'I' for Inactive)
REMARK    1  A    between atoms: C_1  and  C_2
REMARK    2  A    between atoms: C_1  and  O_3
REMARK                            x       y       z     vdW  Elec       q    Type
REMARK                         _______ _______ _______ _____ _____    ______ ____
ROOT
ATOM      1  C   UNL     1     -19.660  14.911  43.099  0.00  0.00    +0.152 C 
ATOM      2  C   UNL     1     -18.731  13.751  42.737  0.00  0.00    +0.034 C 
ENDROOT
BRANCH   1   3
ATOM      3  O   UNL     1     -19.648  15.876  42.044  0.00  0.00    -0.395 OA
ATOM      4  H   UNL     1     -19.119  15.613  41.277  0.00  0.00    +0.209 HD
ENDBRANCH   1   3
TORSDOF 1
ENDMDL
MODEL 6
REMARK VINA RESULT:      -2.2     22.700     23.032
REMARK  Name = EOH
REMARK  2 active torsions:
REMARK  status: ('A' for Active; 'I' for Inactive)
REMARK    1  A    between atoms: C_1  and  C_2
REMARK    2  A    between atoms: C_1  and  O_3
REMARK                            x       y       z     vdW  Elec       q    Type
REMARK                         _______ _______ _______ _____ _____    ______ ____
ROOT
ATOM      1  C   UNL     1      -3.238  30.380  40.496  0.00  0.00    +0.152 C 
ATOM      2  C   UNL     1      -4.682  30.486  40.991  0.00  0.00    +0.034 C 
ENDROOT
BRANCH   1   3
ATOM      3  O   UNL     1      -2.371  30.141  41.606  0.00  0.00    -0.395 OA
ATOM      4  H   UNL     1      -2.820  29.782  42.385  0.00  0.00    +0.209 HD
ENDBRANCH   1   3
TORSDOF 1
ENDMDL
MODEL 7
REMARK VINA RESULT:      -2.1     25.937     26.107
REMARK  Name = EOH
REMARK  2 active torsions:
REMARK  status: ('A' for Active; 'I' for Inactive)
REMARK    1  A    between atoms: C_1  and  C_2
REMARK    2  A    between atoms: C_1  and  O_3
REMARK                            x       y       z     vdW  Elec       q    Type
REMARK                         _______ _______ _______ _____ _____    ______ ____
ROOT
ATOM      1  C   UNL     1      -0.518   6.860  28.825  0.00  0.00    +0.152 C 
ATOM      2  C   UNL     1       0.307   7.115  27.562  0.00  0.00    +0.034 C 
ENDROOT
BRANCH   1   3
ATOM      3  O   UNL     1       0.261   7.193  29.976  0.00  0.00    -0.395 OA
ATOM      4  H   UNL     1      -0.150   7.855  30.551  0.00  0.00    +0.209 HD
ENDBRANCH   1   3
TORSDOF 1
ENDMDL
MODEL 8
REMARK VINA RESULT:      -2.1     21.911     22.068
REMARK  Name = EOH
REMARK  2 active torsions:
REMARK  status: ('A' for Active; 'I' for Inactive)
REMARK    1  A    between atoms: C_1  and  C_2
REMARK    2  A    between atoms: C_1  and  O_3
REMARK                            x       y       z     vdW  Elec       q    Type
REMARK                         _______ _______ _______ _____ _____    ______ ____
ROOT
ATOM      1  C   UNL     1      -5.468  19.260  28.602  0.00  0.00    +0.152 C 
ATOM      2  C   UNL     1      -5.459  20.777  28.402  0.00  0.00    +0.034 C 
ENDROOT
BRANCH   1   3
ATOM      3  O   UNL     1      -4.340  18.687  27.937  0.00  0.00    -0.395 OA
ATOM      4  H   UNL     1      -4.263  18.939  27.006  0.00  0.00    +0.209 HD
ENDBRANCH   1   3
TORSDOF 1
ENDMDL
MODEL 9
REMARK VINA RESULT:      -2.0     18.332     18.433
REMARK  Name = EOH
REMARK  2 active torsions:
REMARK  status: ('A' for Active; 'I' for Inactive)
REMARK    1  A    between atoms: C_1  and  C_2
REMARK    2  A    between atoms: C_1  and  O_3
REMARK                            x       y       z     vdW  Elec       q    Type
REMARK                         _______ _______ _______ _____ _____    ______ ____
ROOT
ATOM      1  C   UNL     1      -2.718  19.841  43.013  0.00  0.00    +0.152 C 
ATOM      2  C   UNL     1      -3.471  20.804  42.094  0.00  0.00    +0.034 C 
ENDROOT
BRANCH   1   3
ATOM      3  O   UNL     1      -1.322  19.891  42.715  0.00  0.00    -0.395 OA
ATOM      4  H   UNL     1      -1.081  19.453  41.886  0.00  0.00    +0.209 HD
ENDBRANCH   1   3
TORSDOF 1
ENDMDL
