MODEL 1
REMARK VINA RESULT:      -5.1      0.000      0.000
REMARK  Name = HBX
REMARK  1 active torsions:
REMARK  status: ('A' for Active; 'I' for Inactive)
REMARK    1  A    between atoms: C_1  and  C_3
REMARK                            x       y       z     vdW  Elec       q    Type
REMARK                         _______ _______ _______ _____ _____    ______ ____
ROOT
ATOM      1  C   UNL     1      -3.150  23.762  22.290  0.00  0.00    +0.014 A 
ATOM      2  C   UNL     1      -1.847  24.023  22.725  0.00  0.00    +0.011 A 
ATOM      3  C   UNL     1      -0.785  23.820  21.868  0.00  0.00    +0.001 A 
ATOM      4  C   UNL     1      -1.009  23.370  20.578  0.00  0.00    +0.000 A 
ATOM      5  C   UNL     1      -2.296  23.116  20.139  0.00  0.00    +0.001 A 
ATOM      6  C   UNL     1      -3.368  23.308  20.985  0.00  0.00    +0.011 A 
ENDROOT
BRANCH   1   7
ATOM      7  C   UNL     1      -4.288  23.970  23.200  0.00  0.00    +0.258 C 
ATOM      8  O   UNL     1      -5.162  23.132  23.278  0.00  0.00    -0.296 OA
ENDBRANCH   1   7
TORSDOF 1
ENDMDL
MODEL 2
REMARK VINA RESULT:      -5.1      0.031      1.704
REMARK  Name = HBX
REMARK  1 active torsions:
REMARK  status: ('A' for Active; 'I' for Inactive)
REMARK    1  A    between atoms: C_1  and  C_3
REMARK                            x       y       z     vdW  Elec       q    Type
REMARK                         _______ _______ _______ _____ _____    ______ ____
ROOT
ATOM      1  C   UNL     1      -3.157  23.766  22.308  0.00  0.00    +0.014 A 
ATOM      2  C   UNL     1      -3.361  23.290  21.010  0.00  0.00    +0.011 A 
ATOM      3  C   UNL     1      -2.283  23.109  20.168  0.00  0.00    +0.001 A 
ATOM      4  C   UNL     1      -1.001  23.387  20.611  0.00  0.00    +0.000 A 
ATOM      5  C   UNL     1      -0.791  23.852  21.897  0.00  0.00    +0.001 A 
ATOM      6  C   UNL     1      -1.858  24.044  22.748  0.00  0.00    +0.011 A 
ENDROOT
BRANCH   1   7
ATOM      7  C   UNL     1      -4.302  23.968  23.211  0.00  0.00    +0.258 C 
ATOM      8  O   UNL     1      -5.164  23.119  23.294  0.00  0.00    -0.296 OA
ENDBRANCH   1   7
TORSDOF 1
ENDMDL
MODEL 3
REMARK VINA RESULT:      -5.0      2.809      3.868
REMARK  Name = HBX
REMARK  1 active torsions:
REMARK  status: ('A' for Active; 'I' for Inactive)
REMARK    1  A    between atoms: C_1  and  C_3
REMARK                            x       y       z     vdW  Elec       q    Type
REMARK                         _______ _______ _______ _____ _____    ______ ____
ROOT
ATOM      1  C   UNL     1      -1.152  22.721  19.702  0.00  0.00    +0.014 A 
ATOM      2  C   UNL     1      -0.326  23.086  20.769  0.00  0.00    +0.011 A 
ATOM      3  C   UNL     1      -0.875  23.664  21.895  0.00  0.00    +0.001 A 
ATOM      4  C   UNL     1      -2.241  23.874  21.972  0.00  0.00    +0.000 A 
ATOM      5  C   UNL     1      -3.066  23.510  20.922  0.00  0.00    +0.001 A 
ATOM      6  C   UNL     1      -2.531  22.936  19.788  0.00  0.00    +0.011 A 
ENDROOT
BRANCH   1   7
ATOM      7  C   UNL     1      -0.573  22.108  18.495  0.00  0.00    +0.258 C 
ATOM      8  O   UNL     1       0.145  21.137  18.594  0.00  0.00    -0.296 OA
ENDBRANCH   1   7
TORSDOF 1
ENDMDL
MODEL 4
REMARK VINA RESULT:      -4.3     17.106     17.249
REMARK  Name = HBX
REMARK  1 active torsions:
REMARK  status: ('A' for Active; 'I' for Inactive)
REMARK    1  A    between atoms: C_1  and  C_3
REMARK                            x       y       z     vdW  Elec       q    Type
REMARK                         _______ _______ _______ _____ _____    ______ ____
ROOT
ATOM      1  C   UNL     1      -1.471   6.791  25.027  0.00  0.00    +0.014 A 
ATOM      2  C   UNL     1      -1.616   7.915  25.845  0.00  0.00    +0.011 A 
ATOM      3  C   UNL     1      -0.840   8.043  26.979  0.00  0.00    +0.001 A 
ATOM      4  C   UNL     1       0.087   7.067  27.300  0.00  0.00    +0.000 A 
ATOM      5  C   UNL     1       0.241   5.955  26.492  0.00  0.00    +0.001 A 
ATOM      6  C   UNL     1      -0.531   5.809  25.359  0.00  0.00    +0.011 A 
ENDROOT
BRANCH   1   7
ATOM      7  C   UNL     1      -2.299   6.643  23.820  0.00  0.00    +0.258 C 
ATOM      8  O   UNL     1      -2.823   7.617  23.322  0.00  0.00    -0.296 OA
ENDBRANCH   1   7
TORSDOF 1
ENDMDL
MODEL 5
REMARK VINA RESULT:      -4.3     16.789     16.814
REMARK  Name = HBX
REMARK  1 active torsions:
REMARK  status: ('A' for Active; 'I' for Inactive)
REMARK    1  A    between atoms: C_1  and  C_3
REMARK                            x       y       z     vdW  Elec       q    Type
REMARK                         _______ _______ _______ _____ _____    ______ ____
ROOT
ATOM      1  C   UNL     1      -1.247   7.953  26.357  0.00  0.00    +0.014 A 
ATOM      2  C   UNL     1      -0.261   7.363  27.153  0.00  0.00    +0.011 A 
ATOM      3  C   UNL     1       0.297   6.159  26.774  0.00  0.00    +0.001 A 
ATOM      4  C   UNL     1      -0.110   5.542  25.604  0.00  0.00    +0.000 A 
ATOM      5  C   UNL     1      -1.082   6.123  24.808  0.00  0.00    +0.001 A 
ATOM      6  C   UNL     1      -1.653   7.323  25.176  0.00  0.00    +0.011 A 
ENDROOT
BRANCH   1   7
ATOM      7  C   UNL     1      -1.852   9.234  26.757  0.00  0.00    +0.258 C 
ATOM      8  O   UNL     1      -1.604  10.242  26.131  0.00  0.00    -0.296 OA
ENDBRANCH   1   7
TORSDOF 1
ENDMDL
MODEL 6
REMARK VINA RESULT:      -4.0      7.580      8.654
REMARK  Name = HBX
REMARK  1 active torsions:
REMARK  status: ('A' for Active; 'I' for Inactive)
REMARK    1  A    between atoms: C_1  and  C_3
REMARK                            x       y       z     vdW  Elec       q    Type
REMARK                         _______ _______ _______ _____ _____    ______ ____
ROOT
ATOM      1  C   UNL     1      -1.269  24.033  30.530  0.00  0.00    +0.014 A 
ATOM      2  C   UNL     1      -1.741  24.332  29.249  0.00  0.00    +0.011 A 
ATOM      3  C   UNL     1      -0.920  24.981  28.349  0.00  0.00    +0.001 A 
ATOM      4  C   UNL     1       0.371  25.326  28.711  0.00  0.00    +0.000 A 
ATOM      5  C   UNL     1       0.847  25.028  29.976  0.00  0.00    +0.001 A 
ATOM      6  C   UNL     1       0.036  24.385  30.887  0.00  0.00    +0.011 A 
ENDROOT
BRANCH   1   7
ATOM      7  C   UNL     1      -2.141  23.347  31.497  0.00  0.00    +0.258 C 
ATOM      8  O   UNL     1      -2.339  22.155  31.394  0.00  0.00    -0.296 OA
ENDBRANCH   1   7
TORSDOF 1
ENDMDL
MODEL 7
REMARK VINA RESULT:      -3.9     17.743     17.882
REMARK  Name = HBX
REMARK  1 active torsions:
REMARK  status: ('A' for Active; 'I' for Inactive)
REMARK    1  A    between atoms: C_1  and  C_3
REMARK                            x       y       z     vdW  Elec       q    Type
REMARK                         _______ _______ _______ _____ _____    ______ ____
ROOT
ATOM      1  C   UNL     1      -0.428   5.961  25.634  0.00  0.00    +0.014 A 
ATOM      2  C   UNL     1      -0.143   6.659  26.811  0.00  0.00    +0.011 A 
ATOM      3  C   UNL     1      -0.725   7.890  27.036  0.00  0.00    +0.001 A 
ATOM      4  C   UNL     1      -1.597   8.427  26.104  0.00  0.00    +0.000 A 
ATOM      5  C   UNL     1      -1.888   7.738  24.940  0.00  0.00    +0.001 A 
ATOM      6  C   UNL     1      -1.310   6.510  24.698  0.00  0.00    +0.011 A 
ENDROOT
BRANCH   1   7
ATOM      7  C   UNL     1       0.194   4.650  25.384  0.00  0.00    +0.258 C 
ATOM      8  O   UNL     1       0.632   4.001  26.310  0.00  0.00    -0.296 OA
ENDBRANCH   1   7
TORSDOF 1
ENDMDL
MODEL 8
REMARK VINA RESULT:      -3.9      7.159      8.150
REMARK  Name = HBX
REMARK  1 active torsions:
REMARK  status: ('A' for Active; 'I' for Inactive)
REMARK    1  A    between atoms: C_1  and  C_3
REMARK                            x       y       z     vdW  Elec       q    Type
REMARK                         _______ _______ _______ _____ _____    ______ ____
ROOT
ATOM      1  C   UNL     1      -1.858  24.231  29.536  0.00  0.00    +0.014 A 
ATOM      2  C   UNL     1      -1.321  23.999  30.806  0.00  0.00    +0.011 A 
ATOM      3  C   UNL     1       0.000  24.308  31.058  0.00  0.00    +0.001 A 
ATOM      4  C   UNL     1       0.789  24.856  30.061  0.00  0.00    +0.000 A 
ATOM      5  C   UNL     1       0.262  25.094  28.804  0.00  0.00    +0.001 A 
ATOM      6  C   UNL     1      -1.055  24.785  28.534  0.00  0.00    +0.011 A 
ENDROOT
BRANCH   1   7
ATOM      7  C   UNL     1      -3.265  23.899  29.257  0.00  0.00    +0.258 C 
ATOM      8  O   UNL     1      -3.731  22.855  29.659  0.00  0.00    -0.296 OA
ENDBRANCH   1   7
TORSDOF 1
ENDMDL
MODEL 9
REMARK VINA RESULT:      -3.8      8.929      9.938
REMARK  Name = HBX
REMARK  1 active torsions:
REMARK  status: ('A' for Active; 'I' for Inactive)
REMARK    1  A    between atoms: C_1  and  C_3
REMARK                            x       y       z     vdW  Elec       q    Type
REMARK                         _______ _______ _______ _____ _____    ______ ____
ROOT
ATOM      1  C   UNL     1       0.174  26.425  31.431  0.00  0.00    +0.014 A 
ATOM      2  C   UNL     1       0.531  25.111  31.118  0.00  0.00    +0.011 A 
ATOM      3  C   UNL     1       0.511  24.688  29.805  0.00  0.00    +0.001 A 
ATOM      4  C   UNL     1       0.149  25.567  28.798  0.00  0.00    +0.000 A 
ATOM      5  C   UNL     1      -0.201  26.871  29.100  0.00  0.00    +0.001 A 
ATOM      6  C   UNL     1      -0.191  27.306  30.408  0.00  0.00    +0.011 A 
ENDROOT
BRANCH   1   7
ATOM      7  C   UNL     1       0.187  26.882  32.830  0.00  0.00    +0.258 C 
ATOM      8  O   UNL     1      -0.790  26.717  33.530  0.00  0.00    -0.296 OA
ENDBRANCH   1   7
TORSDOF 1
ENDMDL
