MODEL 1
REMARK VINA RESULT:      -2.9      0.000      0.000
REMARK  Name = IPA
REMARK  3 active torsions:
REMARK  status: ('A' for Active; 'I' for Inactive)
REMARK    1  A    between atoms: C_1  and  C_2
REMARK    2  A    between atoms: C_2  and  C_3
REMARK    3  A    between atoms: C_2  and  O_4
REMARK                            x       y       z     vdW  Elec       q    Type
REMARK                         _______ _______ _______ _____ _____    ______ ____
ROOT
ATOM      1  C   UNL     1      -0.798  22.535  19.577  0.00  0.00    +0.037 C 
ATOM      2  C   UNL     1      -1.685  23.028  20.723  0.00  0.00    +0.108 C 
ATOM      3  C   UNL     1      -0.868  23.933  21.647  0.00  0.00    +0.037 C 
ENDROOT
BRANCH   2   4
ATOM      4  O   UNL     1      -2.787  23.762  20.189  0.00  0.00    -0.392 OA
ATOM      5  H   UNL     1      -3.101  24.474  20.763  0.00  0.00    +0.210 HD
ENDBRANCH   2   4
TORSDOF 1
ENDMDL
MODEL 2
REMARK VINA RESULT:      -2.9      1.394      1.991
REMARK  Name = IPA
REMARK  3 active torsions:
REMARK  status: ('A' for Active; 'I' for Inactive)
REMARK    1  A    between atoms: C_1  and  C_2
REMARK    2  A    between atoms: C_2  and  C_3
REMARK    3  A    between atoms: C_2  and  O_4
REMARK                            x       y       z     vdW  Elec       q    Type
REMARK                         _______ _______ _______ _____ _____    ______ ____
ROOT
ATOM      1  C   UNL     1      -2.766  23.341  20.456  0.00  0.00    +0.037 C 
ATOM      2  C   UNL     1      -1.384  23.181  21.094  0.00  0.00    +0.108 C 
ATOM      3  C   UNL     1      -0.418  22.579  20.072  0.00  0.00    +0.037 C 
ENDROOT
BRANCH   2   4
ATOM      4  O   UNL     1      -0.901  24.458  21.511  0.00  0.00    -0.392 OA
ATOM      5  H   UNL     1      -1.013  25.156  20.852  0.00  0.00    +0.210 HD
ENDBRANCH   2   4
TORSDOF 1
ENDMDL
MODEL 3
REMARK VINA RESULT:      -2.8      1.674      1.976
REMARK  Name = IPA
REMARK  3 active torsions:
REMARK  status: ('A' for Active; 'I' for Inactive)
REMARK    1  A    between atoms: C_1  and  C_2
REMARK    2  A    between atoms: C_2  and  C_3
REMARK    3  A    between atoms: C_2  and  O_4
REMARK                            x       y       z     vdW  Elec       q    Type
REMARK                         _______ _______ _______ _____ _____    ______ ____
ROOT
ATOM      1  C   UNL     1      -1.588  23.474  21.125  0.00  0.00    +0.037 C 
ATOM      2  C   UNL     1      -3.113  23.346  21.131  0.00  0.00    +0.108 C 
ATOM      3  C   UNL     1      -3.660  23.835  22.473  0.00  0.00    +0.037 C 
ENDROOT
BRANCH   2   4
ATOM      4  O   UNL     1      -3.661  24.138  20.076  0.00  0.00    -0.392 OA
ATOM      5  H   UNL     1      -4.515  24.538  20.287  0.00  0.00    +0.210 HD
ENDBRANCH   2   4
TORSDOF 1
ENDMDL
MODEL 4
REMARK VINA RESULT:      -2.8     30.401     30.735
REMARK  Name = IPA
REMARK  3 active torsions:
REMARK  status: ('A' for Active; 'I' for Inactive)
REMARK    1  A    between atoms: C_1  and  C_2
REMARK    2  A    between atoms: C_2  and  C_3
REMARK    3  A    between atoms: C_2  and  O_4
REMARK                            x       y       z     vdW  Elec       q    Type
REMARK                         _______ _______ _______ _____ _____    ______ ____
ROOT
ATOM      1  C   UNL     1     -19.965  12.918  43.140  0.00  0.00    +0.037 C 
ATOM      2  C   UNL     1     -19.570  14.324  43.599  0.00  0.00    +0.108 C 
ATOM      3  C   UNL     1     -19.574  15.272  42.398  0.00  0.00    +0.037 C 
ENDROOT
BRANCH   2   4
ATOM      4  O   UNL     1     -20.503  14.786  44.575  0.00  0.00    -0.392 OA
ATOM      5  H   UNL     1     -20.230  14.626  45.488  0.00  0.00    +0.210 HD
ENDBRANCH   2   4
TORSDOF 1
ENDMDL
MODEL 5
REMARK VINA RESULT:      -2.8     29.599     29.923
REMARK  Name = IPA
REMARK  3 active torsions:
REMARK  status: ('A' for Active; 'I' for Inactive)
REMARK    1  A    between atoms: C_1  and  C_2
REMARK    2  A    between atoms: C_2  and  C_3
REMARK    3  A    between atoms: C_2  and  O_4
REMARK                            x       y       z     vdW  Elec       q    Type
REMARK                         _______ _______ _______ _____ _____    ______ ____
ROOT
ATOM      1  C   UNL     1     -18.440  13.756  42.492  0.00  0.00    +0.037 C 
ATOM      2  C   UNL     1     -19.747  14.531  42.676  0.00  0.00    +0.108 C 
ATOM      3  C   UNL     1     -20.058  14.659  44.168  0.00  0.00    +0.037 C 
ENDROOT
BRANCH   2   4
ATOM      4  O   UNL     1     -19.614  15.832  42.103  0.00  0.00    -0.392 OA
ATOM      5  H   UNL     1     -19.812  16.554  42.714  0.00  0.00    +0.210 HD
ENDBRANCH   2   4
TORSDOF 1
ENDMDL
MODEL 6
REMARK VINA RESULT:      -2.6      2.697      3.443
REMARK  Name = IPA
REMARK  3 active torsions:
REMARK  status: ('A' for Active; 'I' for Inactive)
REMARK    1  A    between atoms: C_1  and  C_2
REMARK    2  A    between atoms: C_2  and  C_3
REMARK    3  A    between atoms: C_2  and  O_4
REMARK                            x       y       z     vdW  Elec       q    Type
REMARK                         _______ _______ _______ _____ _____    ______ ____
ROOT
ATOM      1  C   UNL     1      -2.663  24.131  23.517  0.00  0.00    +0.037 C 
ATOM      2  C   UNL     1      -3.707  23.874  22.428  0.00  0.00    +0.108 C 
ATOM      3  C   UNL     1      -3.086  23.030  21.314  0.00  0.00    +0.037 C 
ENDROOT
BRANCH   2   4
ATOM      4  O   UNL     1      -4.820  23.178  22.990  0.00  0.00    -0.392 OA
ATOM      5  H   UNL     1      -4.849  22.237  22.768  0.00  0.00    +0.210 HD
ENDBRANCH   2   4
TORSDOF 1
ENDMDL
MODEL 7
REMARK VINA RESULT:      -2.5      9.609      9.981
REMARK  Name = IPA
REMARK  3 active torsions:
REMARK  status: ('A' for Active; 'I' for Inactive)
REMARK    1  A    between atoms: C_1  and  C_2
REMARK    2  A    between atoms: C_2  and  C_3
REMARK    3  A    between atoms: C_2  and  O_4
REMARK                            x       y       z     vdW  Elec       q    Type
REMARK                         _______ _______ _______ _____ _____    ______ ____
ROOT
ATOM      1  C   UNL     1      -5.467  20.754  28.413  0.00  0.00    +0.037 C 
ATOM      2  C   UNL     1      -5.127  19.341  28.893  0.00  0.00    +0.108 C 
ATOM      3  C   UNL     1      -6.419  18.552  29.113  0.00  0.00    +0.037 C 
ENDROOT
BRANCH   2   4
ATOM      4  O   UNL     1      -4.328  18.684  27.908  0.00  0.00    -0.392 OA
ATOM      5  H   UNL     1      -4.816  18.053  27.363  0.00  0.00    +0.210 HD
ENDBRANCH   2   4
TORSDOF 1
ENDMDL
MODEL 8
REMARK VINA RESULT:      -2.5     16.171     16.479
REMARK  Name = IPA
REMARK  3 active torsions:
REMARK  status: ('A' for Active; 'I' for Inactive)
REMARK    1  A    between atoms: C_1  and  C_2
REMARK    2  A    between atoms: C_2  and  C_3
REMARK    3  A    between atoms: C_2  and  O_4
REMARK                            x       y       z     vdW  Elec       q    Type
REMARK                         _______ _______ _______ _____ _____    ______ ____
ROOT
ATOM      1  C   UNL     1      -1.848   7.641  25.396  0.00  0.00    +0.037 C 
ATOM      2  C   UNL     1      -2.096   7.423  23.901  0.00  0.00    +0.108 C 
ATOM      3  C   UNL     1      -2.637   6.010  23.675  0.00  0.00    +0.037 C 
ENDROOT
BRANCH   2   4
ATOM      4  O   UNL     1      -3.048   8.379  23.433  0.00  0.00    -0.392 OA
ATOM      5  H   UNL     1      -2.763   8.866  22.648  0.00  0.00    +0.210 HD
ENDBRANCH   2   4
TORSDOF 1
ENDMDL
MODEL 9
REMARK VINA RESULT:      -2.4      8.651      9.431
REMARK  Name = IPA
REMARK  3 active torsions:
REMARK  status: ('A' for Active; 'I' for Inactive)
REMARK    1  A    between atoms: C_1  and  C_2
REMARK    2  A    between atoms: C_2  and  C_3
REMARK    3  A    between atoms: C_2  and  O_4
REMARK                            x       y       z     vdW  Elec       q    Type
REMARK                         _______ _______ _______ _____ _____    ______ ____
ROOT
ATOM      1  C   UNL     1      -0.394  24.873  28.197  0.00  0.00    +0.037 C 
ATOM      2  C   UNL     1       0.056  24.978  29.656  0.00  0.00    +0.108 C 
ATOM      3  C   UNL     1      -0.922  24.212  30.548  0.00  0.00    +0.037 C 
ENDROOT
BRANCH   2   4
ATOM      4  O   UNL     1       1.364  24.420  29.792  0.00  0.00    -0.392 OA
ATOM      5  H   UNL     1       1.874  24.788  30.526  0.00  0.00    +0.210 HD
ENDBRANCH   2   4
TORSDOF 1
ENDMDL
