MODEL 1
REMARK VINA RESULT:      -4.6      0.000      0.000
REMARK  Name = IPH
REMARK  1 active torsions:
REMARK  status: ('A' for Active; 'I' for Inactive)
REMARK    1  A    between atoms: C_1  and  O_7
REMARK                            x       y       z     vdW  Elec       q    Type
REMARK                         _______ _______ _______ _____ _____    ______ ____
ROOT
ATOM      1  C   UNL     1      -2.773  23.602  20.915  0.00  0.00    +0.117 A 
ATOM      2  C   UNL     1      -1.587  23.565  21.632  0.00  0.00    +0.045 A 
ATOM      3  C   UNL     1      -0.447  23.041  21.056  0.00  0.00    +0.004 A 
ATOM      4  C   UNL     1      -0.484  22.565  19.758  0.00  0.00    +0.000 A 
ATOM      5  C   UNL     1      -1.665  22.605  19.039  0.00  0.00    +0.004 A 
ATOM      6  C   UNL     1      -2.808  23.122  19.614  0.00  0.00    +0.045 A 
ENDROOT
BRANCH   1   7
ATOM      7  O   UNL     1      -3.897  24.112  21.483  0.00  0.00    -0.507 OA
ATOM      8  H   UNL     1      -4.215  23.453  22.114  0.00  0.00    +0.292 HD
ENDBRANCH   1   7
TORSDOF 1
ENDMDL
MODEL 2
REMARK VINA RESULT:      -4.4      2.058      2.699
REMARK  Name = IPH
REMARK  1 active torsions:
REMARK  status: ('A' for Active; 'I' for Inactive)
REMARK    1  A    between atoms: C_1  and  O_7
REMARK                            x       y       z     vdW  Elec       q    Type
REMARK                         _______ _______ _______ _____ _____    ______ ____
ROOT
ATOM      1  C   UNL     1      -1.127  22.441  19.083  0.00  0.00    +0.117 A 
ATOM      2  C   UNL     1      -0.256  22.633  20.146  0.00  0.00    +0.045 A 
ATOM      3  C   UNL     1      -0.710  23.212  21.313  0.00  0.00    +0.004 A 
ATOM      4  C   UNL     1      -2.035  23.590  21.430  0.00  0.00    +0.000 A 
ATOM      5  C   UNL     1      -2.906  23.395  20.374  0.00  0.00    +0.004 A 
ATOM      6  C   UNL     1      -2.455  22.821  19.202  0.00  0.00    +0.045 A 
ENDROOT
BRANCH   1   7
ATOM      7  O   UNL     1      -0.681  21.875  17.931  0.00  0.00    -0.507 OA
ATOM      8  H   UNL     1      -1.460  21.687  17.392  0.00  0.00    +0.292 HD
ENDBRANCH   1   7
TORSDOF 1
ENDMDL
MODEL 3
REMARK VINA RESULT:      -4.1      1.875      3.258
REMARK  Name = IPH
REMARK  1 active torsions:
REMARK  status: ('A' for Active; 'I' for Inactive)
REMARK    1  A    between atoms: C_1  and  O_7
REMARK                            x       y       z     vdW  Elec       q    Type
REMARK                         _______ _______ _______ _____ _____    ______ ____
ROOT
ATOM      1  C   UNL     1      -1.276  23.309  20.571  0.00  0.00    +0.117 A 
ATOM      2  C   UNL     1      -2.632  23.174  20.312  0.00  0.00    +0.045 A 
ATOM      3  C   UNL     1      -3.555  23.468  21.294  0.00  0.00    +0.004 A 
ATOM      4  C   UNL     1      -3.131  23.911  22.534  0.00  0.00    +0.000 A 
ATOM      5  C   UNL     1      -1.780  24.052  22.793  0.00  0.00    +0.004 A 
ATOM      6  C   UNL     1      -0.853  23.753  21.815  0.00  0.00    +0.045 A 
ENDROOT
BRANCH   1   7
ATOM      7  O   UNL     1      -0.365  23.015  19.607  0.00  0.00    -0.507 OA
ATOM      8  H   UNL     1      -0.777  22.365  19.022  0.00  0.00    +0.292 HD
ENDBRANCH   1   7
TORSDOF 1
ENDMDL
MODEL 4
REMARK VINA RESULT:      -4.0     15.958     16.260
REMARK  Name = IPH
REMARK  1 active torsions:
REMARK  status: ('A' for Active; 'I' for Inactive)
REMARK    1  A    between atoms: C_1  and  O_7
REMARK                            x       y       z     vdW  Elec       q    Type
REMARK                         _______ _______ _______ _____ _____    ______ ____
ROOT
ATOM      1  C   UNL     1      -2.155   8.090  24.554  0.00  0.00    +0.117 A 
ATOM      2  C   UNL     1      -1.703   6.799  24.784  0.00  0.00    +0.045 A 
ATOM      3  C   UNL     1      -0.958   6.519  25.911  0.00  0.00    +0.004 A 
ATOM      4  C   UNL     1      -0.673   7.522  26.820  0.00  0.00    +0.000 A 
ATOM      5  C   UNL     1      -1.126   8.809  26.595  0.00  0.00    +0.004 A 
ATOM      6  C   UNL     1      -1.866   9.094  25.466  0.00  0.00    +0.045 A 
ENDROOT
BRANCH   1   7
ATOM      7  O   UNL     1      -2.884   8.369  23.441  0.00  0.00    -0.507 OA
ATOM      8  H   UNL     1      -2.859   7.579  22.886  0.00  0.00    +0.292 HD
ENDBRANCH   1   7
TORSDOF 1
ENDMDL
MODEL 5
REMARK VINA RESULT:      -4.0     16.154     16.413
REMARK  Name = IPH
REMARK  1 active torsions:
REMARK  status: ('A' for Active; 'I' for Inactive)
REMARK    1  A    between atoms: C_1  and  O_7
REMARK                            x       y       z     vdW  Elec       q    Type
REMARK                         _______ _______ _______ _____ _____    ______ ____
ROOT
ATOM      1  C   UNL     1      -2.126   7.977  24.538  0.00  0.00    +0.117 A 
ATOM      2  C   UNL     1      -1.844   8.801  25.617  0.00  0.00    +0.045 A 
ATOM      3  C   UNL     1      -1.073   8.332  26.661  0.00  0.00    +0.004 A 
ATOM      4  C   UNL     1      -0.570   7.045  26.627  0.00  0.00    +0.000 A 
ATOM      5  C   UNL     1      -0.846   6.222  25.550  0.00  0.00    +0.004 A 
ATOM      6  C   UNL     1      -1.622   6.685  24.507  0.00  0.00    +0.045 A 
ENDROOT
BRANCH   1   7
ATOM      7  O   UNL     1      -2.890   8.435  23.512  0.00  0.00    -0.507 OA
ATOM      8  H   UNL     1      -3.430   9.154  23.864  0.00  0.00    +0.292 HD
ENDBRANCH   1   7
TORSDOF 1
ENDMDL
MODEL 6
REMARK VINA RESULT:      -3.8      8.111      9.292
REMARK  Name = IPH
REMARK  1 active torsions:
REMARK  status: ('A' for Active; 'I' for Inactive)
REMARK    1  A    between atoms: C_1  and  O_7
REMARK                            x       y       z     vdW  Elec       q    Type
REMARK                         _______ _______ _______ _____ _____    ______ ____
ROOT
ATOM      1  C   UNL     1      -1.703  24.371  29.005  0.00  0.00    +0.117 A 
ATOM      2  C   UNL     1      -0.756  25.001  28.213  0.00  0.00    +0.045 A 
ATOM      3  C   UNL     1       0.477  25.329  28.740  0.00  0.00    +0.004 A 
ATOM      4  C   UNL     1       0.773  25.017  30.055  0.00  0.00    +0.000 A 
ATOM      5  C   UNL     1      -0.168  24.383  30.845  0.00  0.00    +0.004 A 
ATOM      6  C   UNL     1      -1.404  24.060  30.323  0.00  0.00    +0.045 A 
ENDROOT
BRANCH   1   7
ATOM      7  O   UNL     1      -2.920  24.053  28.489  0.00  0.00    -0.507 OA
ATOM      8  H   UNL     1      -3.569  24.213  29.186  0.00  0.00    +0.292 HD
ENDBRANCH   1   7
TORSDOF 1
ENDMDL
MODEL 7
REMARK VINA RESULT:      -3.7     17.476     17.794
REMARK  Name = IPH
REMARK  1 active torsions:
REMARK  status: ('A' for Active; 'I' for Inactive)
REMARK    1  A    between atoms: C_1  and  O_7
REMARK                            x       y       z     vdW  Elec       q    Type
REMARK                         _______ _______ _______ _____ _____    ______ ____
ROOT
ATOM      1  C   UNL     1      -0.498   5.755  25.332  0.00  0.00    +0.117 A 
ATOM      2  C   UNL     1       0.321   5.837  26.448  0.00  0.00    +0.045 A 
ATOM      3  C   UNL     1       0.215   6.914  27.304  0.00  0.00    +0.004 A 
ATOM      4  C   UNL     1      -0.716   7.906  27.058  0.00  0.00    +0.000 A 
ATOM      5  C   UNL     1      -1.538   7.824  25.948  0.00  0.00    +0.004 A 
ATOM      6  C   UNL     1      -1.431   6.751  25.086  0.00  0.00    +0.045 A 
ENDROOT
BRANCH   1   7
ATOM      7  O   UNL     1      -0.391   4.698  24.485  0.00  0.00    -0.507 OA
ATOM      8  H   UNL     1      -1.193   4.170  24.593  0.00  0.00    +0.292 HD
ENDBRANCH   1   7
TORSDOF 1
ENDMDL
MODEL 8
REMARK VINA RESULT:      -3.6     17.393     17.714
REMARK  Name = IPH
REMARK  1 active torsions:
REMARK  status: ('A' for Active; 'I' for Inactive)
REMARK    1  A    between atoms: C_1  and  O_7
REMARK                            x       y       z     vdW  Elec       q    Type
REMARK                         _______ _______ _______ _____ _____    ______ ____
ROOT
ATOM      1  C   UNL     1      -0.201   7.029  27.926  0.00  0.00    +0.117 A 
ATOM      2  C   UNL     1       0.180   5.997  27.081  0.00  0.00    +0.045 A 
ATOM      3  C   UNL     1      -0.366   5.903  25.817  0.00  0.00    +0.004 A 
ATOM      4  C   UNL     1      -1.282   6.845  25.386  0.00  0.00    +0.000 A 
ATOM      5  C   UNL     1      -1.660   7.878  26.225  0.00  0.00    +0.004 A 
ATOM      6  C   UNL     1      -1.121   7.971  27.492  0.00  0.00    +0.045 A 
ENDROOT
BRANCH   1   7
ATOM      7  O   UNL     1       0.331   7.120  29.173  0.00  0.00    -0.507 OA
ATOM      8  H   UNL     1       1.284   6.990  29.081  0.00  0.00    +0.292 HD
ENDBRANCH   1   7
TORSDOF 1
ENDMDL
MODEL 9
REMARK VINA RESULT:      -3.6      8.672      9.625
REMARK  Name = IPH
REMARK  1 active torsions:
REMARK  status: ('A' for Active; 'I' for Inactive)
REMARK    1  A    between atoms: C_1  and  O_7
REMARK                            x       y       z     vdW  Elec       q    Type
REMARK                         _______ _______ _______ _____ _____    ______ ____
ROOT
ATOM      1  C   UNL     1      -1.219  24.012  30.614  0.00  0.00    +0.117 A 
ATOM      2  C   UNL     1       0.089  24.434  30.799  0.00  0.00    +0.045 A 
ATOM      3  C   UNL     1       0.765  25.056  29.769  0.00  0.00    +0.004 A 
ATOM      4  C   UNL     1       0.135  25.270  28.556  0.00  0.00    +0.000 A 
ATOM      5  C   UNL     1      -1.170  24.853  28.371  0.00  0.00    +0.004 A 
ATOM      6  C   UNL     1      -1.848  24.226  29.397  0.00  0.00    +0.045 A 
ENDROOT
BRANCH   1   7
ATOM      7  O   UNL     1      -1.884  23.394  31.626  0.00  0.00    -0.507 OA
ATOM      8  H   UNL     1      -2.803  23.688  31.576  0.00  0.00    +0.292 HD
ENDBRANCH   1   7
TORSDOF 1
ENDMDL
