MODEL 1
REMARK VINA RESULT:      -1.9      0.000      0.000
REMARK  Name = NME
REMARK  1 active torsions:
REMARK  status: ('A' for Active; 'I' for Inactive)
REMARK    1  A    between atoms: N_1  and  C_2
REMARK                            x       y       z     vdW  Elec       q    Type
REMARK                         _______ _______ _______ _____ _____    ______ ____
ROOT
ATOM      1  N   UNL     1      -1.047  17.263  24.729  0.00  0.00    -0.333 NA
ATOM      2  H   UNL     1      -1.630  17.083  25.532  0.00  0.00    +0.118 HD
ATOM      3  H   UNL     1      -0.852  16.410  24.226  0.00  0.00    +0.118 HD
ATOM      4  C   UNL     1       0.197  17.939  25.122  0.00  0.00    +0.097 C 
ENDROOT
TORSDOF 0
ENDMDL
MODEL 2
REMARK VINA RESULT:      -1.9     27.761     27.761
REMARK  Name = NME
REMARK  1 active torsions:
REMARK  status: ('A' for Active; 'I' for Inactive)
REMARK    1  A    between atoms: N_1  and  C_2
REMARK                            x       y       z     vdW  Elec       q    Type
REMARK                         _______ _______ _______ _____ _____    ______ ____
ROOT
ATOM      1  N   UNL     1     -20.452  14.602  44.908  0.00  0.00    -0.333 NA
ATOM      2  H   UNL     1     -20.005  13.877  45.449  0.00  0.00    +0.118 HD
ATOM      3  H   UNL     1     -21.429  14.394  44.761  0.00  0.00    +0.118 HD
ATOM      4  C   UNL     1     -19.759  14.809  43.629  0.00  0.00    +0.097 C 
ENDROOT
TORSDOF 0
ENDMDL
MODEL 3
REMARK VINA RESULT:      -1.8     20.791     20.791
REMARK  Name = NME
REMARK  1 active torsions:
REMARK  status: ('A' for Active; 'I' for Inactive)
REMARK    1  A    between atoms: N_1  and  C_2
REMARK                            x       y       z     vdW  Elec       q    Type
REMARK                         _______ _______ _______ _____ _____    ______ ____
ROOT
ATOM      1  N   UNL     1      -2.603  30.026  41.465  0.00  0.00    -0.333 NA
ATOM      2  H   UNL     1      -2.621  29.195  42.038  0.00  0.00    +0.118 HD
ATOM      3  H   UNL     1      -2.254  30.817  41.986  0.00  0.00    +0.118 HD
ATOM      4  C   UNL     1      -3.932  30.308  40.905  0.00  0.00    +0.097 C 
ENDROOT
TORSDOF 0
ENDMDL
MODEL 4
REMARK VINA RESULT:      -1.6     18.869     18.869
REMARK  Name = NME
REMARK  1 active torsions:
REMARK  status: ('A' for Active; 'I' for Inactive)
REMARK    1  A    between atoms: N_1  and  C_2
REMARK                            x       y       z     vdW  Elec       q    Type
REMARK                         _______ _______ _______ _____ _____    ______ ____
ROOT
ATOM      1  N   UNL     1      -0.686  19.618  44.050  0.00  0.00    -0.333 NA
ATOM      2  H   UNL     1      -0.669  18.739  44.545  0.00  0.00    +0.118 HD
ATOM      3  H   UNL     1      -0.657  20.396  44.694  0.00  0.00    +0.118 HD
ATOM      4  C   UNL     1      -1.859  19.706  43.170  0.00  0.00    +0.097 C 
ENDROOT
TORSDOF 0
ENDMDL
MODEL 5
REMARK VINA RESULT:      -1.6     18.791     18.791
REMARK  Name = NME
REMARK  1 active torsions:
REMARK  status: ('A' for Active; 'I' for Inactive)
REMARK    1  A    between atoms: N_1  and  C_2
REMARK                            x       y       z     vdW  Elec       q    Type
REMARK                         _______ _______ _______ _____ _____    ______ ____
ROOT
ATOM      1  N   UNL     1      -3.910  18.595  43.623  0.00  0.00    -0.333 NA
ATOM      2  H   UNL     1      -4.844  18.439  43.276  0.00  0.00    +0.118 HD
ATOM      3  H   UNL     1      -3.894  18.589  44.632  0.00  0.00    +0.118 HD
ATOM      4  C   UNL     1      -3.354  19.848  43.095  0.00  0.00    +0.097 C 
ENDROOT
TORSDOF 0
ENDMDL
MODEL 6
REMARK VINA RESULT:      -1.6     10.201     10.201
REMARK  Name = NME
REMARK  1 active torsions:
REMARK  status: ('A' for Active; 'I' for Inactive)
REMARK    1  A    between atoms: N_1  and  C_2
REMARK                            x       y       z     vdW  Elec       q    Type
REMARK                         _______ _______ _______ _____ _____    ______ ____
ROOT
ATOM      1  N   UNL     1      -2.968   8.357  23.513  0.00  0.00    -0.333 NA
ATOM      2  H   UNL     1      -2.424   9.192  23.670  0.00  0.00    +0.118 HD
ATOM      3  H   UNL     1      -3.837   8.390  24.027  0.00  0.00    +0.118 HD
ATOM      4  C   UNL     1      -2.198   7.154  23.858  0.00  0.00    +0.097 C 
ENDROOT
TORSDOF 0
ENDMDL
MODEL 7
REMARK VINA RESULT:      -1.6     11.661     11.661
REMARK  Name = NME
REMARK  1 active torsions:
REMARK  status: ('A' for Active; 'I' for Inactive)
REMARK    1  A    between atoms: N_1  and  C_2
REMARK                            x       y       z     vdW  Elec       q    Type
REMARK                         _______ _______ _______ _____ _____    ______ ____
ROOT
ATOM      1  N   UNL     1      -0.073   7.092  30.246  0.00  0.00    -0.333 NA
ATOM      2  H   UNL     1      -0.607   6.527  30.889  0.00  0.00    +0.118 HD
ATOM      3  H   UNL     1      -0.134   8.070  30.488  0.00  0.00    +0.118 HD
ATOM      4  C   UNL     1      -0.507   6.865  28.861  0.00  0.00    +0.097 C 
ENDROOT
TORSDOF 0
ENDMDL
MODEL 8
REMARK VINA RESULT:      -1.5      7.705      7.705
REMARK  Name = NME
REMARK  1 active torsions:
REMARK  status: ('A' for Active; 'I' for Inactive)
REMARK    1  A    between atoms: N_1  and  C_2
REMARK                            x       y       z     vdW  Elec       q    Type
REMARK                         _______ _______ _______ _____ _____    ______ ____
ROOT
ATOM      1  N   UNL     1      -1.568  10.578  24.585  0.00  0.00    -0.333 NA
ATOM      2  H   UNL     1      -1.121  11.418  24.920  0.00  0.00    +0.118 HD
ATOM      3  H   UNL     1      -2.476  10.784  24.193  0.00  0.00    +0.118 HD
ATOM      4  C   UNL     1      -1.672   9.574  25.652  0.00  0.00    +0.097 C 
ENDROOT
TORSDOF 0
ENDMDL
MODEL 9
REMARK VINA RESULT:      -1.5     16.622     16.622
REMARK  Name = NME
REMARK  1 active torsions:
REMARK  status: ('A' for Active; 'I' for Inactive)
REMARK    1  A    between atoms: N_1  and  C_2
REMARK                            x       y       z     vdW  Elec       q    Type
REMARK                         _______ _______ _______ _____ _____    ______ ____
ROOT
ATOM      1  N   UNL     1      -2.457  27.683  37.363  0.00  0.00    -0.333 NA
ATOM      2  H   UNL     1      -2.573  27.098  36.549  0.00  0.00    +0.118 HD
ATOM      3  H   UNL     1      -2.058  27.162  38.129  0.00  0.00    +0.118 HD
ATOM      4  C   UNL     1      -3.732  28.300  37.754  0.00  0.00    +0.097 C 
ENDROOT
TORSDOF 0
ENDMDL
