MODEL 1
REMARK VINA RESULT:      -3.5      0.000      0.000
REMARK  Name = TBU
REMARK  4 active torsions:
REMARK  status: ('A' for Active; 'I' for Inactive)
REMARK    1  A    between atoms: O_1  and  C_2
REMARK    2  A    between atoms: C_2  and  C_3
REMARK    3  A    between atoms: C_2  and  C_4
REMARK    4  A    between atoms: C_2  and  C_5
REMARK                            x       y       z     vdW  Elec       q    Type
REMARK                         _______ _______ _______ _____ _____    ______ ____
ROOT
ATOM      1  C   UNL     1      -1.537  22.786  20.869  0.00  0.00    +0.058 C 
ATOM      2  C   UNL     1      -2.709  23.353  20.066  0.00  0.00    +0.041 C 
ATOM      3  C   UNL     1      -0.521  22.158  19.913  0.00  0.00    +0.041 C 
ATOM      4  C   UNL     1      -0.867  23.913  21.657  0.00  0.00    +0.041 C 
ENDROOT
BRANCH   1   5
ATOM      5  O   UNL     1      -2.017  21.791  21.776  0.00  0.00    -0.389 OA
ATOM      6  H   UNL     1      -1.388  21.556  22.471  0.00  0.00    +0.210 HD
ENDBRANCH   1   5
TORSDOF 1
ENDMDL
MODEL 2
REMARK VINA RESULT:      -3.5      0.002      1.935
REMARK  Name = TBU
REMARK  4 active torsions:
REMARK  status: ('A' for Active; 'I' for Inactive)
REMARK    1  A    between atoms: O_1  and  C_2
REMARK    2  A    between atoms: C_2  and  C_3
REMARK    3  A    between atoms: C_2  and  C_4
REMARK    4  A    between atoms: C_2  and  C_5
REMARK                            x       y       z     vdW  Elec       q    Type
REMARK                         _______ _______ _______ _____ _____    ______ ____
ROOT
ATOM      1  C   UNL     1      -1.538  22.786  20.871  0.00  0.00    +0.058 C 
ATOM      2  C   UNL     1      -0.868  23.914  21.659  0.00  0.00    +0.041 C 
ATOM      3  C   UNL     1      -2.711  23.352  20.068  0.00  0.00    +0.041 C 
ATOM      4  C   UNL     1      -0.521  22.159  19.915  0.00  0.00    +0.041 C 
ENDROOT
BRANCH   1   5
ATOM      5  O   UNL     1      -2.016  21.791  21.777  0.00  0.00    -0.389 OA
ATOM      6  H   UNL     1      -2.979  21.704  21.793  0.00  0.00    +0.210 HD
ENDBRANCH   1   5
TORSDOF 1
ENDMDL
MODEL 3
REMARK VINA RESULT:      -3.5      0.010      1.933
REMARK  Name = TBU
REMARK  4 active torsions:
REMARK  status: ('A' for Active; 'I' for Inactive)
REMARK    1  A    between atoms: O_1  and  C_2
REMARK    2  A    between atoms: C_2  and  C_3
REMARK    3  A    between atoms: C_2  and  C_4
REMARK    4  A    between atoms: C_2  and  C_5
REMARK                            x       y       z     vdW  Elec       q    Type
REMARK                         _______ _______ _______ _____ _____    ______ ____
ROOT
ATOM      1  C   UNL     1      -1.539  22.788  20.868  0.00  0.00    +0.058 C 
ATOM      2  C   UNL     1      -0.526  22.168  19.903  0.00  0.00    +0.041 C 
ATOM      3  C   UNL     1      -0.868  23.914  21.658  0.00  0.00    +0.041 C 
ATOM      4  C   UNL     1      -2.718  23.354  20.074  0.00  0.00    +0.041 C 
ENDROOT
BRANCH   1   5
ATOM      5  O   UNL     1      -2.010  21.787  21.772  0.00  0.00    -0.389 OA
ATOM      6  H   UNL     1      -1.318  21.403  22.329  0.00  0.00    +0.210 HD
ENDBRANCH   1   5
TORSDOF 1
ENDMDL
MODEL 4
REMARK VINA RESULT:      -2.9      1.688      2.147
REMARK  Name = TBU
REMARK  4 active torsions:
REMARK  status: ('A' for Active; 'I' for Inactive)
REMARK    1  A    between atoms: O_1  and  C_2
REMARK    2  A    between atoms: C_2  and  C_3
REMARK    3  A    between atoms: C_2  and  C_4
REMARK    4  A    between atoms: C_2  and  C_5
REMARK                            x       y       z     vdW  Elec       q    Type
REMARK                         _______ _______ _______ _____ _____    ______ ____
ROOT
ATOM      1  C   UNL     1      -1.990  23.396  21.503  0.00  0.00    +0.058 C 
ATOM      2  C   UNL     1      -0.630  24.097  21.457  0.00  0.00    +0.041 C 
ATOM      3  C   UNL     1      -1.789  21.885  21.369  0.00  0.00    +0.041 C 
ATOM      4  C   UNL     1      -2.677  23.703  22.835  0.00  0.00    +0.041 C 
ENDROOT
BRANCH   1   5
ATOM      5  O   UNL     1      -2.804  23.866  20.427  0.00  0.00    -0.389 OA
ATOM      6  H   UNL     1      -3.735  23.983  20.661  0.00  0.00    +0.210 HD
ENDBRANCH   1   5
TORSDOF 1
ENDMDL
MODEL 5
REMARK VINA RESULT:      -2.9      3.908      4.554
REMARK  Name = TBU
REMARK  4 active torsions:
REMARK  status: ('A' for Active; 'I' for Inactive)
REMARK    1  A    between atoms: O_1  and  C_2
REMARK    2  A    between atoms: C_2  and  C_3
REMARK    3  A    between atoms: C_2  and  C_4
REMARK    4  A    between atoms: C_2  and  C_5
REMARK                            x       y       z     vdW  Elec       q    Type
REMARK                         _______ _______ _______ _____ _____    ______ ____
ROOT
ATOM      1  C   UNL     1      -3.642  24.658  23.748  0.00  0.00    +0.058 C 
ATOM      2  C   UNL     1      -4.723  23.780  23.116  0.00  0.00    +0.041 C 
ATOM      3  C   UNL     1      -3.856  24.719  25.262  0.00  0.00    +0.041 C 
ATOM      4  C   UNL     1      -2.264  24.061  23.452  0.00  0.00    +0.041 C 
ENDROOT
BRANCH   1   5
ATOM      5  O   UNL     1      -3.718  25.976  23.202  0.00  0.00    -0.389 OA
ATOM      6  H   UNL     1      -4.164  26.614  23.775  0.00  0.00    +0.210 HD
ENDBRANCH   1   5
TORSDOF 1
ENDMDL
MODEL 6
REMARK VINA RESULT:      -2.9      9.304      9.680
REMARK  Name = TBU
REMARK  4 active torsions:
REMARK  status: ('A' for Active; 'I' for Inactive)
REMARK    1  A    between atoms: O_1  and  C_2
REMARK    2  A    between atoms: C_2  and  C_3
REMARK    3  A    between atoms: C_2  and  C_4
REMARK    4  A    between atoms: C_2  and  C_5
REMARK                            x       y       z     vdW  Elec       q    Type
REMARK                         _______ _______ _______ _____ _____    ______ ____
ROOT
ATOM      1  C   UNL     1      -5.135  19.344  28.883  0.00  0.00    +0.058 C 
ATOM      2  C   UNL     1      -5.459  20.766  28.418  0.00  0.00    +0.041 C 
ATOM      3  C   UNL     1      -4.352  19.404  30.197  0.00  0.00    +0.041 C 
ATOM      4  C   UNL     1      -6.437  18.571  29.101  0.00  0.00    +0.041 C 
ENDROOT
BRANCH   1   5
ATOM      5  O   UNL     1      -4.349  18.685  27.889  0.00  0.00    -0.389 OA
ATOM      6  H   UNL     1      -3.396  18.730  28.048  0.00  0.00    +0.210 HD
ENDBRANCH   1   5
TORSDOF 1
ENDMDL
MODEL 7
REMARK VINA RESULT:      -2.9      3.946      4.625
REMARK  Name = TBU
REMARK  4 active torsions:
REMARK  status: ('A' for Active; 'I' for Inactive)
REMARK    1  A    between atoms: O_1  and  C_2
REMARK    2  A    between atoms: C_2  and  C_3
REMARK    3  A    between atoms: C_2  and  C_4
REMARK    4  A    between atoms: C_2  and  C_5
REMARK                            x       y       z     vdW  Elec       q    Type
REMARK                         _______ _______ _______ _____ _____    ______ ____
ROOT
ATOM      1  C   UNL     1      -3.644  24.695  23.788  0.00  0.00    +0.058 C 
ATOM      2  C   UNL     1      -3.814  24.814  25.304  0.00  0.00    +0.041 C 
ATOM      3  C   UNL     1      -2.276  24.084  23.475  0.00  0.00    +0.041 C 
ATOM      4  C   UNL     1      -4.745  23.796  23.221  0.00  0.00    +0.041 C 
ENDROOT
BRANCH   1   5
ATOM      5  O   UNL     1      -3.735  25.991  23.195  0.00  0.00    -0.389 OA
ATOM      6  H   UNL     1      -3.245  26.676  23.670  0.00  0.00    +0.210 HD
ENDBRANCH   1   5
TORSDOF 1
ENDMDL
MODEL 8
REMARK VINA RESULT:      -2.8      8.229      9.268
REMARK  Name = TBU
REMARK  4 active torsions:
REMARK  status: ('A' for Active; 'I' for Inactive)
REMARK    1  A    between atoms: O_1  and  C_2
REMARK    2  A    between atoms: C_2  and  C_3
REMARK    3  A    between atoms: C_2  and  C_4
REMARK    4  A    between atoms: C_2  and  C_5
REMARK                            x       y       z     vdW  Elec       q    Type
REMARK                         _______ _______ _______ _____ _____    ______ ____
ROOT
ATOM      1  C   UNL     1       0.004  24.956  29.525  0.00  0.00    +0.058 C 
ATOM      2  C   UNL     1      -0.307  24.741  28.042  0.00  0.00    +0.041 C 
ATOM      3  C   UNL     1      -0.040  26.452  29.843  0.00  0.00    +0.041 C 
ATOM      4  C   UNL     1      -1.036  24.224  30.375  0.00  0.00    +0.041 C 
ENDROOT
BRANCH   1   5
ATOM      5  O   UNL     1       1.305  24.444  29.818  0.00  0.00    -0.389 OA
ATOM      6  H   UNL     1       1.299  23.615  30.316  0.00  0.00    +0.210 HD
ENDBRANCH   1   5
TORSDOF 1
ENDMDL
MODEL 9
REMARK VINA RESULT:      -2.8      8.228      9.181
REMARK  Name = TBU
REMARK  4 active torsions:
REMARK  status: ('A' for Active; 'I' for Inactive)
REMARK    1  A    between atoms: O_1  and  C_2
REMARK    2  A    between atoms: C_2  and  C_3
REMARK    3  A    between atoms: C_2  and  C_4
REMARK    4  A    between atoms: C_2  and  C_5
REMARK                            x       y       z     vdW  Elec       q    Type
REMARK                         _______ _______ _______ _____ _____    ______ ____
ROOT
ATOM      1  C   UNL     1       0.004  24.955  29.525  0.00  0.00    +0.058 C 
ATOM      2  C   UNL     1      -1.039  24.226  30.374  0.00  0.00    +0.041 C 
ATOM      3  C   UNL     1      -0.304  24.738  28.042  0.00  0.00    +0.041 C 
ATOM      4  C   UNL     1      -0.038  26.452  29.841  0.00  0.00    +0.041 C 
ENDROOT
BRANCH   1   5
ATOM      5  O   UNL     1       1.304  24.442  29.822  0.00  0.00    -0.389 OA
ATOM      6  H   UNL     1       1.343  23.916  30.633  0.00  0.00    +0.210 HD
ENDBRANCH   1   5
TORSDOF 1
ENDMDL
