REMARK  Name = TBU
REMARK  4 active torsions:
REMARK  status: ('A' for Active; 'I' for Inactive)
REMARK    1  A    between atoms: O_1  and  C_2
REMARK    2  A    between atoms: C_2  and  C_3
REMARK    3  A    between atoms: C_2  and  C_4
REMARK    4  A    between atoms: C_2  and  C_5
REMARK                            x       y       z     vdW  Elec       q    Type
REMARK                         _______ _______ _______ _____ _____    ______ ____
ROOT
ATOM      1  C   UNL     1      -0.014   0.000   0.001  0.00  0.00    +0.058 C 
ATOM      2  C   UNL     1       0.378  -1.249   0.793  0.00  0.00    +0.041 C 
ATOM      3  C   UNL     1      -1.526   0.000  -0.235  0.00  0.00    +0.041 C 
ATOM      4  C   UNL     1       0.378   1.249   0.793  0.00  0.00    +0.041 C 
ENDROOT
BRANCH   1   5
ATOM      5  O   UNL     1       0.665   0.000  -1.256  0.00  0.00    -0.389 OA
ATOM      6  H   UNL     1       1.629   0.000  -1.182  0.00  0.00    +0.210 HD
ENDBRANCH   1   5
TORSDOF 1
