MODEL 1
REMARK VINA RESULT:      -3.4      0.000      0.000
REMARK  Name = URE
REMARK  0 active torsions:
REMARK  status: ('A' for Active; 'I' for Inactive)
REMARK                            x       y       z     vdW  Elec       q    Type
REMARK                         _______ _______ _______ _____ _____    ______ ____
ROOT
ATOM      1  C   UNL     1       0.046  17.773  24.991  0.00  0.00    +0.294 C 
ATOM      2  N   UNL     1       0.261  18.456  26.132  0.00  0.00    -0.314 N 
ATOM      3  H   UNL     1      -0.474  18.910  26.572  0.00  0.00    +0.146 HD
ATOM      4  H   UNL     1       1.152  18.493  26.514  0.00  0.00    +0.146 HD
ATOM      5  N   UNL     1      -1.191  17.721  24.459  0.00  0.00    -0.314 N 
ATOM      6  H   UNL     1      -1.928  18.173  24.901  0.00  0.00    +0.146 HD
ATOM      7  H   UNL     1      -1.346  17.230  23.638  0.00  0.00    +0.146 HD
ATOM      8  O   UNL     1       0.967  17.205  24.440  0.00  0.00    -0.253 OA
ENDROOT
TORSDOF 0
ENDMDL
MODEL 2
REMARK VINA RESULT:      -3.1     26.959     26.972
REMARK  Name = URE
REMARK  0 active torsions:
REMARK  status: ('A' for Active; 'I' for Inactive)
REMARK                            x       y       z     vdW  Elec       q    Type
REMARK                         _______ _______ _______ _____ _____    ______ ____
ROOT
ATOM      1  C   UNL     1     -19.785  14.720  43.007  0.00  0.00    +0.294 C 
ATOM      2  N   UNL     1     -19.576  15.728  42.139  0.00  0.00    -0.314 N 
ATOM      3  H   UNL     1     -19.307  15.535  41.227  0.00  0.00    +0.146 HD
ATOM      4  H   UNL     1     -19.695  16.648  42.425  0.00  0.00    +0.146 HD
ATOM      5  N   UNL     1     -19.620  13.443  42.610  0.00  0.00    -0.314 N 
ATOM      6  H   UNL     1     -19.354  13.250  41.697  0.00  0.00    +0.146 HD
ATOM      7  H   UNL     1     -19.770  12.717  43.235  0.00  0.00    +0.146 HD
ATOM      8  O   UNL     1     -20.122  14.961  44.149  0.00  0.00    -0.253 OA
ENDROOT
TORSDOF 0
ENDMDL
MODEL 3
REMARK VINA RESULT:      -3.1      8.023      8.091
REMARK  Name = URE
REMARK  0 active torsions:
REMARK  status: ('A' for Active; 'I' for Inactive)
REMARK                            x       y       z     vdW  Elec       q    Type
REMARK                         _______ _______ _______ _____ _____    ______ ____
ROOT
ATOM      1  C   UNL     1      -3.925  24.441  23.104  0.00  0.00    +0.294 C 
ATOM      2  N   UNL     1      -3.753  25.721  23.485  0.00  0.00    -0.314 N 
ATOM      3  H   UNL     1      -3.551  26.401  22.823  0.00  0.00    +0.146 HD
ATOM      4  H   UNL     1      -3.830  25.963  24.421  0.00  0.00    +0.146 HD
ATOM      5  N   UNL     1      -3.817  24.103  21.804  0.00  0.00    -0.314 N 
ATOM      6  H   UNL     1      -3.619  24.784  21.141  0.00  0.00    +0.146 HD
ATOM      7  H   UNL     1      -3.941  23.181  21.530  0.00  0.00    +0.146 HD
ATOM      8  O   UNL     1      -4.177  23.589  23.933  0.00  0.00    -0.253 OA
ENDROOT
TORSDOF 0
ENDMDL
MODEL 4
REMARK VINA RESULT:      -3.0     26.176     26.273
REMARK  Name = URE
REMARK  0 active torsions:
REMARK  status: ('A' for Active; 'I' for Inactive)
REMARK                            x       y       z     vdW  Elec       q    Type
REMARK                         _______ _______ _______ _____ _____    ______ ____
ROOT
ATOM      1  C   UNL     1     -17.590   4.481  39.215  0.00  0.00    +0.294 C 
ATOM      2  N   UNL     1     -18.112   4.688  40.439  0.00  0.00    -0.314 N 
ATOM      3  H   UNL     1     -18.941   5.183  40.535  0.00  0.00    +0.146 HD
ATOM      4  H   UNL     1     -17.660   4.344  41.225  0.00  0.00    +0.146 HD
ATOM      5  N   UNL     1     -18.218   4.959  38.123  0.00  0.00    -0.314 N 
ATOM      6  H   UNL     1     -19.048   5.451  38.218  0.00  0.00    +0.146 HD
ATOM      7  H   UNL     1     -17.841   4.809  37.242  0.00  0.00    +0.146 HD
ATOM      8  O   UNL     1     -16.551   3.861  39.096  0.00  0.00    -0.253 OA
ENDROOT
TORSDOF 0
ENDMDL
MODEL 5
REMARK VINA RESULT:      -2.9     18.328     18.382
REMARK  Name = URE
REMARK  0 active torsions:
REMARK  status: ('A' for Active; 'I' for Inactive)
REMARK                            x       y       z     vdW  Elec       q    Type
REMARK                         _______ _______ _______ _____ _____    ______ ____
ROOT
ATOM      1  C   UNL     1      -2.483  19.676  42.996  0.00  0.00    +0.294 C 
ATOM      2  N   UNL     1      -3.519  18.932  43.432  0.00  0.00    -0.314 N 
ATOM      3  H   UNL     1      -3.403  18.336  44.189  0.00  0.00    +0.146 HD
ATOM      4  H   UNL     1      -4.380  18.993  42.990  0.00  0.00    +0.146 HD
ATOM      5  N   UNL     1      -1.287  19.592  43.610  0.00  0.00    -0.314 N 
ATOM      6  H   UNL     1      -1.172  18.998  44.368  0.00  0.00    +0.146 HD
ATOM      7  H   UNL     1      -0.542  20.127  43.296  0.00  0.00    +0.146 HD
ATOM      8  O   UNL     1      -2.629  20.422  42.049  0.00  0.00    -0.253 OA
ENDROOT
TORSDOF 0
ENDMDL
MODEL 6
REMARK VINA RESULT:      -2.8     27.256     27.279
REMARK  Name = URE
REMARK  0 active torsions:
REMARK  status: ('A' for Active; 'I' for Inactive)
REMARK                            x       y       z     vdW  Elec       q    Type
REMARK                         _______ _______ _______ _____ _____    ______ ____
ROOT
ATOM      1  C   UNL     1     -19.682  14.570  43.519  0.00  0.00    +0.294 C 
ATOM      2  N   UNL     1     -19.800  15.446  42.502  0.00  0.00    -0.314 N 
ATOM      3  H   UNL     1     -20.345  16.241  42.608  0.00  0.00    +0.146 HD
ATOM      4  H   UNL     1     -19.340  15.281  41.664  0.00  0.00    +0.146 HD
ATOM      5  N   UNL     1     -20.320  14.797  44.683  0.00  0.00    -0.314 N 
ATOM      6  H   UNL     1     -20.863  15.594  44.790  0.00  0.00    +0.146 HD
ATOM      7  H   UNL     1     -20.235  14.167  45.415  0.00  0.00    +0.146 HD
ATOM      8  O   UNL     1     -18.999  13.574  43.386  0.00  0.00    -0.253 OA
ENDROOT
TORSDOF 0
ENDMDL
MODEL 7
REMARK VINA RESULT:      -2.8     17.393     17.718
REMARK  Name = URE
REMARK  0 active torsions:
REMARK  status: ('A' for Active; 'I' for Inactive)
REMARK                            x       y       z     vdW  Elec       q    Type
REMARK                         _______ _______ _______ _____ _____    ______ ____
ROOT
ATOM      1  C   UNL     1      -3.411  20.510  42.116  0.00  0.00    +0.294 C 
ATOM      2  N   UNL     1      -2.741  19.430  42.563  0.00  0.00    -0.314 N 
ATOM      3  H   UNL     1      -2.261  18.864  41.939  0.00  0.00    +0.146 HD
ATOM      4  H   UNL     1      -2.738  19.219  43.510  0.00  0.00    +0.146 HD
ATOM      5  N   UNL     1      -3.415  20.804  40.801  0.00  0.00    -0.314 N 
ATOM      6  H   UNL     1      -2.933  20.240  40.177  0.00  0.00    +0.146 HD
ATOM      7  H   UNL     1      -3.897  21.582  40.479  0.00  0.00    +0.146 HD
ATOM      8  O   UNL     1      -4.012  21.219  42.898  0.00  0.00    -0.253 OA
ENDROOT
TORSDOF 0
ENDMDL
MODEL 8
REMARK VINA RESULT:      -2.7     17.330     17.804
REMARK  Name = URE
REMARK  0 active torsions:
REMARK  status: ('A' for Active; 'I' for Inactive)
REMARK                            x       y       z     vdW  Elec       q    Type
REMARK                         _______ _______ _______ _____ _____    ______ ____
ROOT
ATOM      1  C   UNL     1       3.653  24.861  40.862  0.00  0.00    +0.294 C 
ATOM      2  N   UNL     1       3.808  25.033  39.535  0.00  0.00    -0.314 N 
ATOM      3  H   UNL     1       3.345  25.756  39.083  0.00  0.00    +0.146 HD
ATOM      4  H   UNL     1       4.384  24.436  39.032  0.00  0.00    +0.146 HD
ATOM      5  N   UNL     1       2.855  25.690  41.562  0.00  0.00    -0.314 N 
ATOM      6  H   UNL     1       2.393  26.414  41.110  0.00  0.00    +0.146 HD
ATOM      7  H   UNL     1       2.743  25.565  42.517  0.00  0.00    +0.146 HD
ATOM      8  O   UNL     1       4.234  23.956  41.429  0.00  0.00    -0.253 OA
ENDROOT
TORSDOF 0
ENDMDL
MODEL 9
REMARK VINA RESULT:      -2.6     26.641     26.641
REMARK  Name = URE
REMARK  0 active torsions:
REMARK  status: ('A' for Active; 'I' for Inactive)
REMARK                            x       y       z     vdW  Elec       q    Type
REMARK                         _______ _______ _______ _____ _____    ______ ____
ROOT
ATOM      1  C   UNL     1     -22.598   9.179  36.140  0.00  0.00    +0.294 C 
ATOM      2  N   UNL     1     -22.011  10.015  37.018  0.00  0.00    -0.314 N 
ATOM      3  H   UNL     1     -21.828  10.933  36.765  0.00  0.00    +0.146 HD
ATOM      4  H   UNL     1     -21.772   9.699  37.903  0.00  0.00    +0.146 HD
ATOM      5  N   UNL     1     -22.931   9.617  34.910  0.00  0.00    -0.314 N 
ATOM      6  H   UNL     1     -22.750  10.537  34.658  0.00  0.00    +0.146 HD
ATOM      7  H   UNL     1     -23.353   9.015  34.278  0.00  0.00    +0.146 HD
ATOM      8  O   UNL     1     -22.828   8.029  36.457  0.00  0.00    -0.253 OA
ENDROOT
TORSDOF 0
ENDMDL
