2F2
  CCTOOLS-0711141051

  9  8  0  0  0  0  0  0  0  0999 V2000
    1.1990   -0.2440   -0.0000 C   0  0  0  0  0
   -0.0000    0.5340   -0.0000 O   0  0  0  0  0
   -1.1990   -0.2440    0.0000 C   0  0  0  0  0
    1.2230   -0.8730    0.8900 H   0  0  0  0  0
    1.2230   -0.8730   -0.8900 H   0  0  0  0  0
    2.0630    0.4200   -0.0000 H   0  0  0  0  0
   -1.2230   -0.8730   -0.8900 H   0  0  0  0  0
   -1.2230   -0.8730    0.8900 H   0  0  0  0  0
   -2.0630    0.4200    0.0000 H   0  0  0  0  0
  1  2  1  0  0  0
  1  4  1  0  0  0
  1  5  1  0  0  0
  1  6  1  0  0  0
  3  2  1  0  0  0
  3  7  1  0  0  0
  3  8  1  0  0  0
  3  9  1  0  0  0
M  END
$$$$
