REMARK  Name = 2F2
REMARK  2 active torsions:
REMARK  status: ('A' for Active; 'I' for Inactive)
REMARK    1  A    between atoms: C_1  and  O_2
REMARK    2  A    between atoms: O_2  and  C_3
REMARK                            x       y       z     vdW  Elec       q    Type
REMARK                         _______ _______ _______ _____ _____    ______ ____
ROOT
ATOM      1  C   UNL     1       1.199  -0.244   0.000  0.00  0.00    +0.193 C 
ATOM      2  O   UNL     1       0.000   0.534   0.000  0.00  0.00    -0.386 OA
ATOM      3  C   UNL     1      -1.199  -0.244   0.000  0.00  0.00    +0.193 C 
ENDROOT
TORSDOF 0
