REMARK  Name = CHX
REMARK  0 active torsions:
REMARK  status: ('A' for Active; 'I' for Inactive)
REMARK                            x       y       z     vdW  Elec       q    Type
REMARK                         _______ _______ _______ _____ _____    ______ ____
ROOT
ATOM      1  C   UNL     1      -1.249   0.255   0.720  0.00  0.00    -0.000 C 
ATOM      2  C   UNL     1      -0.001  -0.255   1.442  0.00  0.00    -0.000 C 
ATOM      3  C   UNL     1       1.248   0.255   0.722  0.00  0.00    -0.000 C 
ATOM      4  C   UNL     1       1.249  -0.255  -0.720  0.00  0.00    -0.000 C 
ATOM      5  C   UNL     1       0.001   0.255  -1.442  0.00  0.00    -0.000 C 
ATOM      6  C   UNL     1      -1.248  -0.255  -0.722  0.00  0.00    -0.000 C 
ENDROOT
TORSDOF 0
