REMARK  Name = ethane.pdb
REMARK  0 active torsions:
REMARK  status: ('A' for Active; 'I' for Inactive)
REMARK                            x       y       z     vdW  Elec       q    Type
REMARK                         _______ _______ _______ _____ _____    ______ ____
ROOT
ATOM      1  C   UNL     1       1.540   0.000   0.000  0.00  0.00    +0.000 C 
ATOM      2  C   UNL     1       0.000   0.000   0.000  0.00  0.00    +0.000 C 
ENDROOT
TORSDOF 0
