REMARK  Name = HBX
REMARK  1 active torsions:
REMARK  status: ('A' for Active; 'I' for Inactive)
REMARK    1  A    between atoms: C_1  and  C_3
REMARK                            x       y       z     vdW  Elec       q    Type
REMARK                         _______ _______ _______ _____ _____    ______ ____
ROOT
ATOM      1  C   UNL     1       0.495   0.250   0.000  0.00  0.00    +0.014 A 
ATOM      2  C   UNL     1       0.041  -1.072  -0.004  0.00  0.00    +0.011 A 
ATOM      3  C   UNL     1      -1.314  -1.332   0.002  0.00  0.00    +0.001 A 
ATOM      4  C   UNL     1      -2.222  -0.287   0.001  0.00  0.00    +0.000 A 
ATOM      5  C   UNL     1      -1.780   1.024  -0.001  0.00  0.00    +0.001 A 
ATOM      6  C   UNL     1      -0.429   1.300  -0.001  0.00  0.00    +0.011 A 
ENDROOT
BRANCH   1   7
ATOM      7  C   UNL     1       1.939   0.536   0.000  0.00  0.00    +0.258 C 
ATOM      8  O   UNL     1       2.737  -0.377   0.001  0.00  0.00    -0.296 OA
ENDBRANCH   1   7
TORSDOF 1
