REMARK  Name = URE
REMARK  0 active torsions:
REMARK  status: ('A' for Active; 'I' for Inactive)
REMARK                            x       y       z     vdW  Elec       q    Type
REMARK                         _______ _______ _______ _____ _____    ______ ____
ROOT
ATOM      1  C   UNL     1       0.052   0.000   0.000  0.00  0.00    +0.294 C 
ATOM      2  N   UNL     1      -0.621   0.000  -1.167  0.00  0.00    -0.314 N 
ATOM      3  H   UNL     1      -1.591   0.000  -1.167  0.00  0.00    +0.146 HD
ATOM      4  H   UNL     1      -0.136   0.000  -2.007  0.00  0.00    +0.146 HD
ATOM      5  N   UNL     1      -0.621   0.000   1.167  0.00  0.00    -0.314 N 
ATOM      6  H   UNL     1      -1.591   0.003   1.167  0.00  0.00    +0.146 HD
ATOM      7  H   UNL     1      -0.136   0.000   2.007  0.00  0.00    +0.146 HD
ATOM      8  O   UNL     1       1.267   0.000   0.000  0.00  0.00    -0.253 OA
ENDROOT
TORSDOF 0
