MODEL 1
REMARK VINA RESULT:      -1.9      0.000      0.000
REMARK  Name = 2F2
REMARK  2 active torsions:
REMARK  status: ('A' for Active; 'I' for Inactive)
REMARK    1  A    between atoms: C_1  and  O_2
REMARK    2  A    between atoms: O_2  and  C_3
REMARK                            x       y       z     vdW  Elec       q    Type
REMARK                         _______ _______ _______ _____ _____    ______ ____
ROOT
ATOM      1  C   UNL     1     -17.461   4.059  39.530  0.00  0.00    +0.193 C 
ATOM      2  O   UNL     1     -16.317   4.244  38.693  0.00  0.00    -0.386 OA
ATOM      3  C   UNL     1     -16.301   5.492  37.997  0.00  0.00    +0.193 C 
ENDROOT
TORSDOF 0
ENDMDL
MODEL 2
REMARK VINA RESULT:      -1.9      0.524      2.001
REMARK  Name = 2F2
REMARK  2 active torsions:
REMARK  status: ('A' for Active; 'I' for Inactive)
REMARK    1  A    between atoms: C_1  and  O_2
REMARK    2  A    between atoms: O_2  and  C_3
REMARK                            x       y       z     vdW  Elec       q    Type
REMARK                         _______ _______ _______ _____ _____    ______ ____
ROOT
ATOM      1  C   UNL     1     -16.842   5.467  38.363  0.00  0.00    +0.193 C 
ATOM      2  O   UNL     1     -16.630   4.152  38.880  0.00  0.00    -0.386 OA
ATOM      3  C   UNL     1     -17.490   3.808  39.969  0.00  0.00    +0.193 C 
ENDROOT
TORSDOF 0
ENDMDL
MODEL 3
REMARK VINA RESULT:      -1.7     10.284     10.557
REMARK  Name = 2F2
REMARK  2 active torsions:
REMARK  status: ('A' for Active; 'I' for Inactive)
REMARK    1  A    between atoms: C_1  and  O_2
REMARK    2  A    between atoms: O_2  and  C_3
REMARK                            x       y       z     vdW  Elec       q    Type
REMARK                         _______ _______ _______ _____ _____    ______ ____
ROOT
ATOM      1  C   UNL     1     -13.168  -3.984  38.632  0.00  0.00    +0.193 C 
ATOM      2  O   UNL     1     -12.571  -5.151  38.062  0.00  0.00    -0.386 OA
ATOM      3  C   UNL     1     -11.411  -5.611  38.759  0.00  0.00    +0.193 C 
ENDROOT
TORSDOF 0
ENDMDL
MODEL 4
REMARK VINA RESULT:      -1.7     10.274     10.531
REMARK  Name = 2F2
REMARK  2 active torsions:
REMARK  status: ('A' for Active; 'I' for Inactive)
REMARK    1  A    between atoms: C_1  and  O_2
REMARK    2  A    between atoms: O_2  and  C_3
REMARK                            x       y       z     vdW  Elec       q    Type
REMARK                         _______ _______ _______ _____ _____    ______ ____
ROOT
ATOM      1  C   UNL     1     -11.439  -5.621  38.791  0.00  0.00    +0.193 C 
ATOM      2  O   UNL     1     -12.573  -5.138  38.068  0.00  0.00    -0.386 OA
ATOM      3  C   UNL     1     -13.173  -3.972  38.636  0.00  0.00    +0.193 C 
ENDROOT
TORSDOF 0
ENDMDL
MODEL 5
REMARK VINA RESULT:      -1.7      9.905     10.513
REMARK  Name = 2F2
REMARK  2 active torsions:
REMARK  status: ('A' for Active; 'I' for Inactive)
REMARK    1  A    between atoms: C_1  and  O_2
REMARK    2  A    between atoms: O_2  and  C_3
REMARK                            x       y       z     vdW  Elec       q    Type
REMARK                         _______ _______ _______ _____ _____    ______ ____
ROOT
ATOM      1  C   UNL     1     -11.718   5.326  30.820  0.00  0.00    +0.193 C 
ATOM      2  O   UNL     1     -11.288   5.181  29.465  0.00  0.00    -0.386 OA
ATOM      3  C   UNL     1     -11.100   3.825  29.056  0.00  0.00    +0.193 C 
ENDROOT
TORSDOF 0
ENDMDL
MODEL 6
REMARK VINA RESULT:      -1.7      9.977     10.622
REMARK  Name = 2F2
REMARK  2 active torsions:
REMARK  status: ('A' for Active; 'I' for Inactive)
REMARK    1  A    between atoms: C_1  and  O_2
REMARK    2  A    between atoms: O_2  and  C_3
REMARK                            x       y       z     vdW  Elec       q    Type
REMARK                         _______ _______ _______ _____ _____    ______ ____
ROOT
ATOM      1  C   UNL     1     -11.078   3.792  28.997  0.00  0.00    +0.193 C 
ATOM      2  O   UNL     1     -11.213   5.151  29.418  0.00  0.00    -0.386 OA
ATOM      3  C   UNL     1     -11.673   5.302  30.762  0.00  0.00    +0.193 C 
ENDROOT
TORSDOF 0
ENDMDL
MODEL 7
REMARK VINA RESULT:      -1.7     11.225     11.482
REMARK  Name = 2F2
REMARK  2 active torsions:
REMARK  status: ('A' for Active; 'I' for Inactive)
REMARK    1  A    between atoms: C_1  and  O_2
REMARK    2  A    between atoms: O_2  and  C_3
REMARK                            x       y       z     vdW  Elec       q    Type
REMARK                         _______ _______ _______ _____ _____    ______ ____
ROOT
ATOM      1  C   UNL     1     -21.636  12.154  46.767  0.00  0.00    +0.193 C 
ATOM      2  O   UNL     1     -20.458  11.513  47.260  0.00  0.00    -0.386 OA
ATOM      3  C   UNL     1     -20.337  10.141  46.879  0.00  0.00    +0.193 C 
ENDROOT
TORSDOF 0
ENDMDL
MODEL 8
REMARK VINA RESULT:      -1.7     11.810     12.030
REMARK  Name = 2F2
REMARK  2 active torsions:
REMARK  status: ('A' for Active; 'I' for Inactive)
REMARK    1  A    between atoms: C_1  and  O_2
REMARK    2  A    between atoms: O_2  and  C_3
REMARK                            x       y       z     vdW  Elec       q    Type
REMARK                         _______ _______ _______ _____ _____    ______ ____
ROOT
ATOM      1  C   UNL     1     -26.943   6.243  45.459  0.00  0.00    +0.193 C 
ATOM      2  O   UNL     1     -26.309   7.523  45.472  0.00  0.00    -0.386 OA
ATOM      3  C   UNL     1     -25.063   7.550  46.171  0.00  0.00    +0.193 C 
ENDROOT
TORSDOF 0
ENDMDL
MODEL 9
REMARK VINA RESULT:      -1.6      8.976      8.990
REMARK  Name = 2F2
REMARK  2 active torsions:
REMARK  status: ('A' for Active; 'I' for Inactive)
REMARK    1  A    between atoms: C_1  and  O_2
REMARK    2  A    between atoms: O_2  and  C_3
REMARK                            x       y       z     vdW  Elec       q    Type
REMARK                         _______ _______ _______ _____ _____    ______ ____
ROOT
ATOM      1  C   UNL     1     -13.479  -3.804  38.382  0.00  0.00    +0.193 C 
ATOM      2  O   UNL     1     -14.758  -4.084  37.809  0.00  0.00    -0.386 OA
ATOM      3  C   UNL     1     -14.846  -3.795  36.411  0.00  0.00    +0.193 C 
ENDROOT
TORSDOF 0
ENDMDL
