MODEL 1
REMARK VINA RESULT:      -2.8      0.000      0.000
REMARK  Name = ACM
REMARK  1 active torsions:
REMARK  status: ('A' for Active; 'I' for Inactive)
REMARK    1  A    between atoms: C_1  and  C_4
REMARK                            x       y       z     vdW  Elec       q    Type
REMARK                         _______ _______ _______ _____ _____    ______ ____
ROOT
ATOM      1  C   UNL     1     -15.331  -3.733  37.557  0.00  0.00    +0.207 C 
ATOM      2  C   UNL     1     -15.062  -3.908  36.086  0.00  0.00    +0.109 C 
ATOM      3  N   UNL     1     -16.462  -3.128  37.969  0.00  0.00    -0.330 N 
ATOM      4  H   UNL     1     -17.103  -2.805  37.317  0.00  0.00    +0.145 HD
ATOM      5  H   UNL     1     -16.635  -3.015  38.917  0.00  0.00    +0.145 HD
ATOM      6  O   UNL     1     -14.529  -4.138  38.372  0.00  0.00    -0.276 OA
ENDROOT
TORSDOF 0
ENDMDL
MODEL 2
REMARK VINA RESULT:      -2.8      8.584      8.810
REMARK  Name = ACM
REMARK  1 active torsions:
REMARK  status: ('A' for Active; 'I' for Inactive)
REMARK    1  A    between atoms: C_1  and  C_4
REMARK                            x       y       z     vdW  Elec       q    Type
REMARK                         _______ _______ _______ _____ _____    ______ ____
ROOT
ATOM      1  C   UNL     1     -17.533   4.392  39.264  0.00  0.00    +0.207 C 
ATOM      2  C   UNL     1     -18.059   4.614  40.658  0.00  0.00    +0.109 C 
ATOM      3  N   UNL     1     -18.210   4.872  38.203  0.00  0.00    -0.330 N 
ATOM      4  H   UNL     1     -19.037   5.361  38.338  0.00  0.00    +0.145 HD
ATOM      5  H   UNL     1     -17.871   4.729  37.306  0.00  0.00    +0.145 HD
ATOM      6  O   UNL     1     -16.499   3.780  39.097  0.00  0.00    -0.276 OA
ENDROOT
TORSDOF 0
ENDMDL
MODEL 3
REMARK VINA RESULT:      -2.7      2.052      2.301
REMARK  Name = ACM
REMARK  1 active torsions:
REMARK  status: ('A' for Active; 'I' for Inactive)
REMARK    1  A    between atoms: C_1  and  C_4
REMARK                            x       y       z     vdW  Elec       q    Type
REMARK                         _______ _______ _______ _____ _____    ______ ____
ROOT
ATOM      1  C   UNL     1     -14.128  -3.480  37.658  0.00  0.00    +0.207 C 
ATOM      2  C   UNL     1     -13.062  -2.956  38.583  0.00  0.00    +0.109 C 
ATOM      3  N   UNL     1     -14.100  -3.163  36.349  0.00  0.00    -0.330 N 
ATOM      4  H   UNL     1     -13.392  -2.597  36.003  0.00  0.00    +0.145 HD
ATOM      5  H   UNL     1     -14.787  -3.500  35.753  0.00  0.00    +0.145 HD
ATOM      6  O   UNL     1     -15.013  -4.187  38.092  0.00  0.00    -0.276 OA
ENDROOT
TORSDOF 0
ENDMDL
MODEL 4
REMARK VINA RESULT:      -2.6     18.739     18.959
REMARK  Name = ACM
REMARK  1 active torsions:
REMARK  status: ('A' for Active; 'I' for Inactive)
REMARK    1  A    between atoms: C_1  and  C_4
REMARK                            x       y       z     vdW  Elec       q    Type
REMARK                         _______ _______ _______ _____ _____    ______ ____
ROOT
ATOM      1  C   UNL     1     -21.528  11.813  46.509  0.00  0.00    +0.207 C 
ATOM      2  C   UNL     1     -21.092  11.056  45.282  0.00  0.00    +0.109 C 
ATOM      3  N   UNL     1     -22.824  12.144  46.672  0.00  0.00    -0.330 N 
ATOM      4  H   UNL     1     -23.476  11.894  45.999  0.00  0.00    +0.145 HD
ATOM      5  H   UNL     1     -23.105  12.631  47.462  0.00  0.00    +0.145 HD
ATOM      6  O   UNL     1     -20.712  12.125  47.350  0.00  0.00    -0.276 OA
ENDROOT
TORSDOF 0
ENDMDL
MODEL 5
REMARK VINA RESULT:      -2.6     16.979     17.159
REMARK  Name = ACM
REMARK  1 active torsions:
REMARK  status: ('A' for Active; 'I' for Inactive)
REMARK    1  A    between atoms: C_1  and  C_4
REMARK                            x       y       z     vdW  Elec       q    Type
REMARK                         _______ _______ _______ _____ _____    ______ ____
ROOT
ATOM      1  C   UNL     1     -26.600   6.283  45.443  0.00  0.00    +0.207 C 
ATOM      2  C   UNL     1     -27.773   5.526  46.009  0.00  0.00    +0.109 C 
ATOM      3  N   UNL     1     -25.476   5.625  45.098  0.00  0.00    -0.330 N 
ATOM      4  H   UNL     1     -25.423   4.664  45.215  0.00  0.00    +0.145 HD
ATOM      5  H   UNL     1     -24.721   6.113  44.734  0.00  0.00    +0.145 HD
ATOM      6  O   UNL     1     -26.668   7.485  45.298  0.00  0.00    -0.276 OA
ENDROOT
TORSDOF 0
ENDMDL
MODEL 6
REMARK VINA RESULT:      -2.6     17.804     18.020
REMARK  Name = ACM
REMARK  1 active torsions:
REMARK  status: ('A' for Active; 'I' for Inactive)
REMARK    1  A    between atoms: C_1  and  C_4
REMARK                            x       y       z     vdW  Elec       q    Type
REMARK                         _______ _______ _______ _____ _____    ______ ____
ROOT
ATOM      1  C   UNL     1     -28.178   5.293  46.295  0.00  0.00    +0.207 C 
ATOM      2  C   UNL     1     -27.060   5.856  45.459  0.00  0.00    +0.109 C 
ATOM      3  N   UNL     1     -28.024   5.163  47.628  0.00  0.00    -0.330 N 
ATOM      4  H   UNL     1     -27.192   5.432  48.047  0.00  0.00    +0.145 HD
ATOM      5  H   UNL     1     -28.745   4.801  48.166  0.00  0.00    +0.145 HD
ATOM      6  O   UNL     1     -29.218   4.957  45.769  0.00  0.00    -0.276 OA
ENDROOT
TORSDOF 0
ENDMDL
MODEL 7
REMARK VINA RESULT:      -2.5      3.733      3.854
REMARK  Name = ACM
REMARK  1 active torsions:
REMARK  status: ('A' for Active; 'I' for Inactive)
REMARK    1  A    between atoms: C_1  and  C_4
REMARK                            x       y       z     vdW  Elec       q    Type
REMARK                         _______ _______ _______ _____ _____    ______ ____
ROOT
ATOM      1  C   UNL     1     -12.165  -4.283  38.012  0.00  0.00    +0.207 C 
ATOM      2  C   UNL     1     -11.003  -4.573  38.924  0.00  0.00    +0.109 C 
ATOM      3  N   UNL     1     -11.946  -3.799  36.773  0.00  0.00    -0.330 N 
ATOM      4  H   UNL     1     -11.040  -3.637  36.470  0.00  0.00    +0.145 HD
ATOM      5  H   UNL     1     -12.695  -3.612  36.186  0.00  0.00    +0.145 HD
ATOM      6  O   UNL     1     -13.299  -4.485  38.392  0.00  0.00    -0.276 OA
ENDROOT
TORSDOF 0
ENDMDL
MODEL 8
REMARK VINA RESULT:      -2.5     14.827     14.899
REMARK  Name = ACM
REMARK  1 active torsions:
REMARK  status: ('A' for Active; 'I' for Inactive)
REMARK    1  A    between atoms: C_1  and  C_4
REMARK                            x       y       z     vdW  Elec       q    Type
REMARK                         _______ _______ _______ _____ _____    ______ ____
ROOT
ATOM      1  C   UNL     1     -22.455   9.149  36.108  0.00  0.00    +0.207 C 
ATOM      2  C   UNL     1     -21.507   9.968  36.944  0.00  0.00    +0.109 C 
ATOM      3  N   UNL     1     -22.924   9.639  34.944  0.00  0.00    -0.330 N 
ATOM      4  H   UNL     1     -22.651  10.520  34.645  0.00  0.00    +0.145 HD
ATOM      5  H   UNL     1     -23.534   9.112  34.406  0.00  0.00    +0.145 HD
ATOM      6  O   UNL     1     -22.796   8.048  36.483  0.00  0.00    -0.276 OA
ENDROOT
TORSDOF 0
ENDMDL
MODEL 9
REMARK VINA RESULT:      -2.4     13.705     13.800
REMARK  Name = ACM
REMARK  1 active torsions:
REMARK  status: ('A' for Active; 'I' for Inactive)
REMARK    1  A    between atoms: C_1  and  C_4
REMARK                            x       y       z     vdW  Elec       q    Type
REMARK                         _______ _______ _______ _____ _____    ______ ____
ROOT
ATOM      1  C   UNL     1     -26.322   3.394  41.327  0.00  0.00    +0.207 C 
ATOM      2  C   UNL     1     -26.737   2.496  42.462  0.00  0.00    +0.109 C 
ATOM      3  N   UNL     1     -25.168   4.086  41.402  0.00  0.00    -0.330 N 
ATOM      4  H   UNL     1     -24.605   4.005  42.188  0.00  0.00    +0.145 HD
ATOM      5  H   UNL     1     -24.900   4.664  40.671  0.00  0.00    +0.145 HD
ATOM      6  O   UNL     1     -27.026   3.495  40.345  0.00  0.00    -0.276 OA
ENDROOT
TORSDOF 0
ENDMDL
