MODEL 1
REMARK VINA RESULT:      -2.7      0.000      0.000
REMARK  Name = ACN
REMARK  2 active torsions:
REMARK  status: ('A' for Active; 'I' for Inactive)
REMARK    1  A    between atoms: C_1  and  C_3
REMARK    2  A    between atoms: C_1  and  C_4
REMARK                            x       y       z     vdW  Elec       q    Type
REMARK                         _______ _______ _______ _____ _____    ______ ____
ROOT
ATOM      1  C   UNL     1     -12.160  -4.697  38.373  0.00  0.00    +0.127 C 
ATOM      2  C   UNL     1     -13.121  -3.567  38.639  0.00  0.00    +0.085 C 
ATOM      3  C   UNL     1     -10.895  -4.817  39.183  0.00  0.00    +0.085 C 
ATOM      4  O   UNL     1     -12.402  -5.504  37.507  0.00  0.00    -0.298 OA
ENDROOT
TORSDOF 0
ENDMDL
MODEL 2
REMARK VINA RESULT:      -2.7      1.405      2.267
REMARK  Name = ACN
REMARK  2 active torsions:
REMARK  status: ('A' for Active; 'I' for Inactive)
REMARK    1  A    between atoms: C_1  and  C_3
REMARK    2  A    between atoms: C_1  and  C_4
REMARK                            x       y       z     vdW  Elec       q    Type
REMARK                         _______ _______ _______ _____ _____    ______ ____
ROOT
ATOM      1  C   UNL     1     -13.126  -3.874  38.421  0.00  0.00    +0.127 C 
ATOM      2  C   UNL     1     -12.057  -4.868  38.792  0.00  0.00    +0.085 C 
ATOM      3  C   UNL     1     -12.757  -2.441  38.136  0.00  0.00    +0.085 C 
ATOM      4  O   UNL     1     -14.280  -4.224  38.357  0.00  0.00    -0.298 OA
ENDROOT
TORSDOF 0
ENDMDL
MODEL 3
REMARK VINA RESULT:      -2.5     16.999     17.574
REMARK  Name = ACN
REMARK  2 active torsions:
REMARK  status: ('A' for Active; 'I' for Inactive)
REMARK    1  A    between atoms: C_1  and  C_3
REMARK    2  A    between atoms: C_1  and  C_4
REMARK                            x       y       z     vdW  Elec       q    Type
REMARK                         _______ _______ _______ _____ _____    ______ ____
ROOT
ATOM      1  C   UNL     1     -27.183   2.683  43.649  0.00  0.00    +0.127 C 
ATOM      2  C   UNL     1     -28.246   2.320  44.654  0.00  0.00    +0.085 C 
ATOM      3  C   UNL     1     -25.913   3.352  44.104  0.00  0.00    +0.085 C 
ATOM      4  O   UNL     1     -27.352   2.441  42.478  0.00  0.00    -0.298 OA
ENDROOT
TORSDOF 0
ENDMDL
MODEL 4
REMARK VINA RESULT:      -2.5     17.003     17.627
REMARK  Name = ACN
REMARK  2 active torsions:
REMARK  status: ('A' for Active; 'I' for Inactive)
REMARK    1  A    between atoms: C_1  and  C_3
REMARK    2  A    between atoms: C_1  and  C_4
REMARK                            x       y       z     vdW  Elec       q    Type
REMARK                         _______ _______ _______ _____ _____    ______ ____
ROOT
ATOM      1  C   UNL     1     -27.180   2.689  43.668  0.00  0.00    +0.127 C 
ATOM      2  C   UNL     1     -25.905   3.361  44.106  0.00  0.00    +0.085 C 
ATOM      3  C   UNL     1     -28.222   2.310  44.688  0.00  0.00    +0.085 C 
ATOM      4  O   UNL     1     -27.365   2.448  42.499  0.00  0.00    -0.298 OA
ENDROOT
TORSDOF 0
ENDMDL
MODEL 5
REMARK VINA RESULT:      -2.4     19.836     20.605
REMARK  Name = ACN
REMARK  2 active torsions:
REMARK  status: ('A' for Active; 'I' for Inactive)
REMARK    1  A    between atoms: C_1  and  C_3
REMARK    2  A    between atoms: C_1  and  C_4
REMARK                            x       y       z     vdW  Elec       q    Type
REMARK                         _______ _______ _______ _____ _____    ______ ____
ROOT
ATOM      1  C   UNL     1     -21.437  11.724  46.652  0.00  0.00    +0.127 C 
ATOM      2  C   UNL     1     -22.883  11.889  47.044  0.00  0.00    +0.085 C 
ATOM      3  C   UNL     1     -21.082  11.178  45.294  0.00  0.00    +0.085 C 
ATOM      4  O   UNL     1     -20.563  12.026  47.429  0.00  0.00    -0.298 OA
ENDROOT
TORSDOF 0
ENDMDL
MODEL 6
REMARK VINA RESULT:      -2.4      2.104      2.538
REMARK  Name = ACN
REMARK  2 active torsions:
REMARK  status: ('A' for Active; 'I' for Inactive)
REMARK    1  A    between atoms: C_1  and  C_3
REMARK    2  A    between atoms: C_1  and  C_4
REMARK                            x       y       z     vdW  Elec       q    Type
REMARK                         _______ _______ _______ _____ _____    ______ ____
ROOT
ATOM      1  C   UNL     1     -10.747  -3.680  37.804  0.00  0.00    +0.127 C 
ATOM      2  C   UNL     1      -9.404  -3.483  37.150  0.00  0.00    +0.085 C 
ATOM      3  C   UNL     1     -10.882  -4.609  38.983  0.00  0.00    +0.085 C 
ATOM      4  O   UNL     1     -11.716  -3.097  37.381  0.00  0.00    -0.298 OA
ENDROOT
TORSDOF 0
ENDMDL
MODEL 7
REMARK VINA RESULT:      -2.4     18.790     19.710
REMARK  Name = ACN
REMARK  2 active torsions:
REMARK  status: ('A' for Active; 'I' for Inactive)
REMARK    1  A    between atoms: C_1  and  C_3
REMARK    2  A    between atoms: C_1  and  C_4
REMARK                            x       y       z     vdW  Elec       q    Type
REMARK                         _______ _______ _______ _____ _____    ______ ____
ROOT
ATOM      1  C   UNL     1     -27.005   6.032  45.488  0.00  0.00    +0.127 C 
ATOM      2  C   UNL     1     -26.363   4.969  44.635  0.00  0.00    +0.085 C 
ATOM      3  C   UNL     1     -27.997   5.645  46.555  0.00  0.00    +0.085 C 
ATOM      4  O   UNL     1     -26.728   7.194  45.314  0.00  0.00    -0.298 OA
ENDROOT
TORSDOF 0
ENDMDL
MODEL 8
REMARK VINA RESULT:      -2.3     11.242     11.323
REMARK  Name = ACN
REMARK  2 active torsions:
REMARK  status: ('A' for Active; 'I' for Inactive)
REMARK    1  A    between atoms: C_1  and  C_3
REMARK    2  A    between atoms: C_1  and  C_4
REMARK                            x       y       z     vdW  Elec       q    Type
REMARK                         _______ _______ _______ _____ _____    ______ ____
ROOT
ATOM      1  C   UNL     1     -19.549   2.118  33.640  0.00  0.00    +0.127 C 
ATOM      2  C   UNL     1     -18.523   2.350  32.561  0.00  0.00    +0.085 C 
ATOM      3  C   UNL     1     -20.520   0.972  33.523  0.00  0.00    +0.085 C 
ATOM      4  O   UNL     1     -19.597   2.855  34.596  0.00  0.00    -0.298 OA
ENDROOT
TORSDOF 0
ENDMDL
MODEL 9
REMARK VINA RESULT:      -2.3      1.594      2.254
REMARK  Name = ACN
REMARK  2 active torsions:
REMARK  status: ('A' for Active; 'I' for Inactive)
REMARK    1  A    between atoms: C_1  and  C_3
REMARK    2  A    between atoms: C_1  and  C_4
REMARK                            x       y       z     vdW  Elec       q    Type
REMARK                         _______ _______ _______ _____ _____    ______ ____
ROOT
ATOM      1  C   UNL     1     -11.555  -5.004  37.548  0.00  0.00    +0.127 C 
ATOM      2  C   UNL     1     -10.418  -4.096  37.936  0.00  0.00    +0.085 C 
ATOM      3  C   UNL     1     -11.645  -5.542  36.143  0.00  0.00    +0.085 C 
ATOM      4  O   UNL     1     -12.399  -5.297  38.361  0.00  0.00    -0.298 OA
ENDROOT
TORSDOF 0
ENDMDL
