REMARK  Name = BNZ
REMARK  0 active torsions:
REMARK  status: ('A' for Active; 'I' for Inactive)
REMARK                            x       y       z     vdW  Elec       q    Type
REMARK                         _______ _______ _______ _____ _____    ______ ____
ROOT
ATOM      1  C   UNL     1       0.675  -1.206   0.000  0.00  0.00    +0.000 A 
ATOM      2  C   UNL     1       1.382  -0.019  -0.001  0.00  0.00    +0.000 A 
ATOM      3  C   UNL     1       0.707   1.188   0.001  0.00  0.00    +0.000 A 
ATOM      4  C   UNL     1      -0.675   1.206   0.000  0.00  0.00    +0.000 A 
ATOM      5  C   UNL     1      -1.382   0.019   0.000  0.00  0.00    +0.000 A 
ATOM      6  C   UNL     1      -0.707  -1.188   0.000  0.00  0.00    +0.000 A 
ENDROOT
TORSDOF 0
