MODEL 1
REMARK VINA RESULT:      -4.0      0.000      0.000
REMARK  Name = BNZ
REMARK  0 active torsions:
REMARK  status: ('A' for Active; 'I' for Inactive)
REMARK                            x       y       z     vdW  Elec       q    Type
REMARK                         _______ _______ _______ _____ _____    ______ ____
ROOT
ATOM      1  C   UNL     1     -12.148  -5.035  39.042  0.00  0.00    +0.000 A 
ATOM      2  C   UNL     1     -10.834  -5.211  38.654  0.00  0.00    +0.000 A 
ATOM      3  C   UNL     1     -10.235  -4.297  37.805  0.00  0.00    +0.000 A 
ATOM      4  C   UNL     1     -10.953  -3.210  37.344  0.00  0.00    +0.000 A 
ATOM      5  C   UNL     1     -12.267  -3.035  37.731  0.00  0.00    +0.000 A 
ATOM      6  C   UNL     1     -12.866  -3.947  38.581  0.00  0.00    +0.000 A 
ENDROOT
TORSDOF 0
ENDMDL
MODEL 2
REMARK VINA RESULT:      -4.0      0.203      2.481
REMARK  Name = BNZ
REMARK  0 active torsions:
REMARK  status: ('A' for Active; 'I' for Inactive)
REMARK                            x       y       z     vdW  Elec       q    Type
REMARK                         _______ _______ _______ _____ _____    ______ ____
ROOT
ATOM      1  C   UNL     1     -10.270  -4.145  37.806  0.00  0.00    +0.000 A 
ATOM      2  C   UNL     1     -11.127  -3.123  37.444  0.00  0.00    +0.000 A 
ATOM      3  C   UNL     1     -12.440  -3.136  37.878  0.00  0.00    +0.000 A 
ATOM      4  C   UNL     1     -12.896  -4.174  38.669  0.00  0.00    +0.000 A 
ATOM      5  C   UNL     1     -12.039  -5.196  39.030  0.00  0.00    +0.000 A 
ATOM      6  C   UNL     1     -10.725  -5.182  38.598  0.00  0.00    +0.000 A 
ENDROOT
TORSDOF 0
ENDMDL
MODEL 3
REMARK VINA RESULT:      -4.0      0.132      2.353
REMARK  Name = BNZ
REMARK  0 active torsions:
REMARK  status: ('A' for Active; 'I' for Inactive)
REMARK                            x       y       z     vdW  Elec       q    Type
REMARK                         _______ _______ _______ _____ _____    ______ ____
ROOT
ATOM      1  C   UNL     1     -12.266  -3.064  37.837  0.00  0.00    +0.000 A 
ATOM      2  C   UNL     1     -12.807  -4.037  38.655  0.00  0.00    +0.000 A 
ATOM      3  C   UNL     1     -12.062  -5.153  38.988  0.00  0.00    +0.000 A 
ATOM      4  C   UNL     1     -10.778  -5.297  38.498  0.00  0.00    +0.000 A 
ATOM      5  C   UNL     1     -10.237  -4.325  37.680  0.00  0.00    +0.000 A 
ATOM      6  C   UNL     1     -10.981  -3.207  37.349  0.00  0.00    +0.000 A 
ENDROOT
TORSDOF 0
ENDMDL
MODEL 4
REMARK VINA RESULT:      -4.0      0.113      1.955
REMARK  Name = BNZ
REMARK  0 active torsions:
REMARK  status: ('A' for Active; 'I' for Inactive)
REMARK                            x       y       z     vdW  Elec       q    Type
REMARK                         _______ _______ _______ _____ _____    ______ ____
ROOT
ATOM      1  C   UNL     1     -11.024  -3.176  37.401  0.00  0.00    +0.000 A 
ATOM      2  C   UNL     1     -10.242  -4.248  37.785  0.00  0.00    +0.000 A 
ATOM      3  C   UNL     1     -10.774  -5.238  38.591  0.00  0.00    +0.000 A 
ATOM      4  C   UNL     1     -12.087  -5.153  39.013  0.00  0.00    +0.000 A 
ATOM      5  C   UNL     1     -12.869  -4.081  38.629  0.00  0.00    +0.000 A 
ATOM      6  C   UNL     1     -12.337  -3.091  37.823  0.00  0.00    +0.000 A 
ENDROOT
TORSDOF 0
ENDMDL
MODEL 5
REMARK VINA RESULT:      -3.6      1.539      2.794
REMARK  Name = BNZ
REMARK  0 active torsions:
REMARK  status: ('A' for Active; 'I' for Inactive)
REMARK                            x       y       z     vdW  Elec       q    Type
REMARK                         _______ _______ _______ _____ _____    ______ ____
ROOT
ATOM      1  C   UNL     1      -9.180  -4.784  36.323  0.00  0.00    +0.000 A 
ATOM      2  C   UNL     1      -9.825  -5.897  36.826  0.00  0.00    +0.000 A 
ATOM      3  C   UNL     1     -10.632  -5.783  37.943  0.00  0.00    +0.000 A 
ATOM      4  C   UNL     1     -10.791  -4.555  38.557  0.00  0.00    +0.000 A 
ATOM      5  C   UNL     1     -10.145  -3.442  38.055  0.00  0.00    +0.000 A 
ATOM      6  C   UNL     1      -9.340  -3.556  36.937  0.00  0.00    +0.000 A 
ENDROOT
TORSDOF 0
ENDMDL
MODEL 6
REMARK VINA RESULT:      -3.5     15.556     16.746
REMARK  Name = BNZ
REMARK  0 active torsions:
REMARK  status: ('A' for Active; 'I' for Inactive)
REMARK                            x       y       z     vdW  Elec       q    Type
REMARK                         _______ _______ _______ _____ _____    ______ ____
ROOT
ATOM      1  C   UNL     1     -26.671   2.011  42.115  0.00  0.00    +0.000 A 
ATOM      2  C   UNL     1     -27.215   2.484  43.294  0.00  0.00    +0.000 A 
ATOM      3  C   UNL     1     -26.434   3.207  44.176  0.00  0.00    +0.000 A 
ATOM      4  C   UNL     1     -25.106   3.454  43.880  0.00  0.00    +0.000 A 
ATOM      5  C   UNL     1     -24.561   2.980  42.702  0.00  0.00    +0.000 A 
ATOM      6  C   UNL     1     -25.344   2.258  41.819  0.00  0.00    +0.000 A 
ENDROOT
TORSDOF 0
ENDMDL
MODEL 7
REMARK VINA RESULT:      -3.5      1.686      3.427
REMARK  Name = BNZ
REMARK  0 active torsions:
REMARK  status: ('A' for Active; 'I' for Inactive)
REMARK                            x       y       z     vdW  Elec       q    Type
REMARK                         _______ _______ _______ _____ _____    ______ ____
ROOT
ATOM      1  C   UNL     1      -8.661  -4.011  36.336  0.00  0.00    +0.000 A 
ATOM      2  C   UNL     1      -9.347  -3.244  37.259  0.00  0.00    +0.000 A 
ATOM      3  C   UNL     1     -10.324  -3.822  38.048  0.00  0.00    +0.000 A 
ATOM      4  C   UNL     1     -10.618  -5.166  37.911  0.00  0.00    +0.000 A 
ATOM      5  C   UNL     1      -9.933  -5.932  36.987  0.00  0.00    +0.000 A 
ATOM      6  C   UNL     1      -8.954  -5.355  36.200  0.00  0.00    +0.000 A 
ENDROOT
TORSDOF 0
ENDMDL
MODEL 8
REMARK VINA RESULT:      -3.5     17.601     18.911
REMARK  Name = BNZ
REMARK  0 active torsions:
REMARK  status: ('A' for Active; 'I' for Inactive)
REMARK                            x       y       z     vdW  Elec       q    Type
REMARK                         _______ _______ _______ _____ _____    ______ ____
ROOT
ATOM      1  C   UNL     1     -27.145   5.004  45.140  0.00  0.00    +0.000 A 
ATOM      2  C   UNL     1     -26.279   4.436  44.226  0.00  0.00    +0.000 A 
ATOM      3  C   UNL     1     -26.517   3.160  43.749  0.00  0.00    +0.000 A 
ATOM      4  C   UNL     1     -27.619   2.452  44.190  0.00  0.00    +0.000 A 
ATOM      5  C   UNL     1     -28.484   3.020  45.105  0.00  0.00    +0.000 A 
ATOM      6  C   UNL     1     -28.247   4.297  45.581  0.00  0.00    +0.000 A 
ENDROOT
TORSDOF 0
ENDMDL
MODEL 9
REMARK VINA RESULT:      -3.5      1.561      2.300
REMARK  Name = BNZ
REMARK  0 active torsions:
REMARK  status: ('A' for Active; 'I' for Inactive)
REMARK                            x       y       z     vdW  Elec       q    Type
REMARK                         _______ _______ _______ _____ _____    ______ ____
ROOT
ATOM      1  C   UNL     1     -10.648  -5.694  36.586  0.00  0.00    +0.000 A 
ATOM      2  C   UNL     1      -9.941  -4.640  36.039  0.00  0.00    +0.000 A 
ATOM      3  C   UNL     1      -9.660  -3.524  36.806  0.00  0.00    +0.000 A 
ATOM      4  C   UNL     1     -10.090  -3.462  38.118  0.00  0.00    +0.000 A 
ATOM      5  C   UNL     1     -10.797  -4.515  38.665  0.00  0.00    +0.000 A 
ATOM      6  C   UNL     1     -11.077  -5.632  37.898  0.00  0.00    +0.000 A 
ENDROOT
TORSDOF 0
ENDMDL
