MODEL 1
REMARK VINA RESULT:      -3.9      0.000      0.000
REMARK  Name = CHX
REMARK  0 active torsions:
REMARK  status: ('A' for Active; 'I' for Inactive)
REMARK                            x       y       z     vdW  Elec       q    Type
REMARK                         _______ _______ _______ _____ _____    ______ ____
ROOT
ATOM      1  C   UNL     1     -12.304  -3.028  38.289  0.00  0.00    -0.000 C 
ATOM      2  C   UNL     1     -12.822  -4.416  38.665  0.00  0.00    -0.000 C 
ATOM      3  C   UNL     1     -11.658  -5.282  39.148  0.00  0.00    -0.000 C 
ATOM      4  C   UNL     1     -10.621  -5.410  38.031  0.00  0.00    -0.000 C 
ATOM      5  C   UNL     1     -10.102  -4.021  37.655  0.00  0.00    -0.000 C 
ATOM      6  C   UNL     1     -11.267  -3.156  37.172  0.00  0.00    -0.000 C 
ENDROOT
TORSDOF 0
ENDMDL
MODEL 2
REMARK VINA RESULT:      -3.9      0.059      2.102
REMARK  Name = CHX
REMARK  0 active torsions:
REMARK  status: ('A' for Active; 'I' for Inactive)
REMARK                            x       y       z     vdW  Elec       q    Type
REMARK                         _______ _______ _______ _____ _____    ______ ____
ROOT
ATOM      1  C   UNL     1     -10.585  -5.353  38.035  0.00  0.00    -0.000 C 
ATOM      2  C   UNL     1     -11.616  -5.255  39.161  0.00  0.00    -0.000 C 
ATOM      3  C   UNL     1     -12.817  -4.439  38.681  0.00  0.00    -0.000 C 
ATOM      4  C   UNL     1     -12.355  -3.035  38.290  0.00  0.00    -0.000 C 
ATOM      5  C   UNL     1     -11.324  -3.132  37.165  0.00  0.00    -0.000 C 
ATOM      6  C   UNL     1     -10.123  -3.948  37.644  0.00  0.00    -0.000 C 
ENDROOT
TORSDOF 0
ENDMDL
MODEL 3
REMARK VINA RESULT:      -3.9      0.078      2.102
REMARK  Name = CHX
REMARK  0 active torsions:
REMARK  status: ('A' for Active; 'I' for Inactive)
REMARK                            x       y       z     vdW  Elec       q    Type
REMARK                         _______ _______ _______ _____ _____    ______ ____
ROOT
ATOM      1  C   UNL     1     -11.344  -3.111  37.209  0.00  0.00    -0.000 C 
ATOM      2  C   UNL     1     -10.140  -3.930  37.677  0.00  0.00    -0.000 C 
ATOM      3  C   UNL     1     -10.593  -5.347  38.030  0.00  0.00    -0.000 C 
ATOM      4  C   UNL     1     -11.634  -5.285  39.150  0.00  0.00    -0.000 C 
ATOM      5  C   UNL     1     -12.838  -4.467  38.682  0.00  0.00    -0.000 C 
ATOM      6  C   UNL     1     -12.384  -3.049  38.329  0.00  0.00    -0.000 C 
ENDROOT
TORSDOF 0
ENDMDL
MODEL 4
REMARK VINA RESULT:      -3.9      0.082      2.468
REMARK  Name = CHX
REMARK  0 active torsions:
REMARK  status: ('A' for Active; 'I' for Inactive)
REMARK                            x       y       z     vdW  Elec       q    Type
REMARK                         _______ _______ _______ _____ _____    ______ ____
ROOT
ATOM      1  C   UNL     1     -10.136  -3.915  37.641  0.00  0.00    -0.000 C 
ATOM      2  C   UNL     1     -11.347  -3.114  37.159  0.00  0.00    -0.000 C 
ATOM      3  C   UNL     1     -12.382  -3.031  38.281  0.00  0.00    -0.000 C 
ATOM      4  C   UNL     1     -12.826  -4.442  38.671  0.00  0.00    -0.000 C 
ATOM      5  C   UNL     1     -11.615  -5.243  39.153  0.00  0.00    -0.000 C 
ATOM      6  C   UNL     1     -10.580  -5.326  38.030  0.00  0.00    -0.000 C 
ENDROOT
TORSDOF 0
ENDMDL
MODEL 5
REMARK VINA RESULT:      -3.9      0.082      2.102
REMARK  Name = CHX
REMARK  0 active torsions:
REMARK  status: ('A' for Active; 'I' for Inactive)
REMARK                            x       y       z     vdW  Elec       q    Type
REMARK                         _______ _______ _______ _____ _____    ______ ____
ROOT
ATOM      1  C   UNL     1     -12.797  -4.496  38.697  0.00  0.00    -0.000 C 
ATOM      2  C   UNL     1     -12.355  -3.080  38.325  0.00  0.00    -0.000 C 
ATOM      3  C   UNL     1     -11.347  -3.146  37.177  0.00  0.00    -0.000 C 
ATOM      4  C   UNL     1     -10.129  -3.962  37.614  0.00  0.00    -0.000 C 
ATOM      5  C   UNL     1     -10.571  -5.378  37.986  0.00  0.00    -0.000 C 
ATOM      6  C   UNL     1     -11.579  -5.312  39.134  0.00  0.00    -0.000 C 
ENDROOT
TORSDOF 0
ENDMDL
MODEL 6
REMARK VINA RESULT:      -3.8      0.743      2.773
REMARK  Name = CHX
REMARK  0 active torsions:
REMARK  status: ('A' for Active; 'I' for Inactive)
REMARK                            x       y       z     vdW  Elec       q    Type
REMARK                         _______ _______ _______ _____ _____    ______ ____
ROOT
ATOM      1  C   UNL     1     -10.911  -5.168  39.034  0.00  0.00    -0.000 C 
ATOM      2  C   UNL     1     -10.310  -4.875  37.658  0.00  0.00    -0.000 C 
ATOM      3  C   UNL     1     -10.548  -3.407  37.301  0.00  0.00    -0.000 C 
ATOM      4  C   UNL     1     -12.052  -3.127  37.271  0.00  0.00    -0.000 C 
ATOM      5  C   UNL     1     -12.652  -3.420  38.647  0.00  0.00    -0.000 C 
ATOM      6  C   UNL     1     -12.414  -4.888  39.004  0.00  0.00    -0.000 C 
ENDROOT
TORSDOF 0
ENDMDL
MODEL 7
REMARK VINA RESULT:      -3.6      1.198      1.878
REMARK  Name = CHX
REMARK  0 active torsions:
REMARK  status: ('A' for Active; 'I' for Inactive)
REMARK                            x       y       z     vdW  Elec       q    Type
REMARK                         _______ _______ _______ _____ _____    ______ ____
ROOT
ATOM      1  C   UNL     1     -10.096  -3.408  36.924  0.00  0.00    -0.000 C 
ATOM      2  C   UNL     1     -11.150  -3.388  38.032  0.00  0.00    -0.000 C 
ATOM      3  C   UNL     1     -10.896  -4.547  38.997  0.00  0.00    -0.000 C 
ATOM      4  C   UNL     1     -10.981  -5.871  38.236  0.00  0.00    -0.000 C 
ATOM      5  C   UNL     1      -9.927  -5.891  37.128  0.00  0.00    -0.000 C 
ATOM      6  C   UNL     1     -10.181  -4.732  36.163  0.00  0.00    -0.000 C 
ENDROOT
TORSDOF 0
ENDMDL
MODEL 8
REMARK VINA RESULT:      -3.6      1.214      3.039
REMARK  Name = CHX
REMARK  0 active torsions:
REMARK  status: ('A' for Active; 'I' for Inactive)
REMARK                            x       y       z     vdW  Elec       q    Type
REMARK                         _______ _______ _______ _____ _____    ______ ____
ROOT
ATOM      1  C   UNL     1      -9.943  -5.906  37.124  0.00  0.00    -0.000 C 
ATOM      2  C   UNL     1     -10.179  -4.770  36.127  0.00  0.00    -0.000 C 
ATOM      3  C   UNL     1     -10.065  -3.427  36.849  0.00  0.00    -0.000 C 
ATOM      4  C   UNL     1     -11.112  -3.356  37.962  0.00  0.00    -0.000 C 
ATOM      5  C   UNL     1     -10.875  -4.492  38.958  0.00  0.00    -0.000 C 
ATOM      6  C   UNL     1     -10.990  -5.835  38.236  0.00  0.00    -0.000 C 
ENDROOT
TORSDOF 0
ENDMDL
MODEL 9
REMARK VINA RESULT:      -3.5      1.344      2.509
REMARK  Name = CHX
REMARK  0 active torsions:
REMARK  status: ('A' for Active; 'I' for Inactive)
REMARK                            x       y       z     vdW  Elec       q    Type
REMARK                         _______ _______ _______ _____ _____    ______ ____
ROOT
ATOM      1  C   UNL     1      -9.722  -4.684  35.919  0.00  0.00    -0.000 C 
ATOM      2  C   UNL     1      -9.754  -5.875  36.879  0.00  0.00    -0.000 C 
ATOM      3  C   UNL     1     -10.924  -5.713  37.850  0.00  0.00    -0.000 C 
ATOM      4  C   UNL     1     -10.749  -4.420  38.648  0.00  0.00    -0.000 C 
ATOM      5  C   UNL     1     -10.717  -3.230  37.689  0.00  0.00    -0.000 C 
ATOM      6  C   UNL     1      -9.547  -3.391  36.717  0.00  0.00    -0.000 C 
ENDROOT
TORSDOF 0
ENDMDL
