MODEL 1
REMARK VINA RESULT:      -2.7      0.000      0.000
REMARK  Name = DMF
REMARK  2 active torsions:
REMARK  status: ('A' for Active; 'I' for Inactive)
REMARK    1  A    between atoms: C_1  and  N_5
REMARK    2  A    between atoms: C_2  and  N_5
REMARK                            x       y       z     vdW  Elec       q    Type
REMARK                         _______ _______ _______ _____ _____    ______ ____
ROOT
ATOM      1  C   UNL     1     -18.302   6.421  40.572  0.00  0.00    +0.131 C 
ATOM      2  N   UNL     1     -17.736   5.498  39.585  0.00  0.00    -0.310 N 
ATOM      3  C   UNL     1     -17.670   4.180  39.858  0.00  0.00    +0.327 C 
ATOM      4  O   UNL     1     -17.202   3.415  39.041  0.00  0.00    -0.279 OA
ATOM      5  C   UNL     1     -17.244   6.007  38.304  0.00  0.00    +0.131 C 
ENDROOT
TORSDOF 0
ENDMDL
MODEL 2
REMARK VINA RESULT:      -2.5     10.665     11.121
REMARK  Name = DMF
REMARK  2 active torsions:
REMARK  status: ('A' for Active; 'I' for Inactive)
REMARK    1  A    between atoms: C_1  and  N_5
REMARK    2  A    between atoms: C_2  and  N_5
REMARK                            x       y       z     vdW  Elec       q    Type
REMARK                         _______ _______ _______ _____ _____    ______ ____
ROOT
ATOM      1  C   UNL     1     -23.846  11.530  47.626  0.00  0.00    +0.131 C 
ATOM      2  N   UNL     1     -22.471  11.033  47.520  0.00  0.00    -0.310 N 
ATOM      3  C   UNL     1     -21.460  11.895  47.298  0.00  0.00    +0.327 C 
ATOM      4  O   UNL     1     -20.322  11.484  47.210  0.00  0.00    -0.279 OA
ATOM      5  C   UNL     1     -22.198   9.601  47.655  0.00  0.00    +0.131 C 
ENDROOT
TORSDOF 0
ENDMDL
MODEL 3
REMARK VINA RESULT:      -2.5     10.160     10.571
REMARK  Name = DMF
REMARK  2 active torsions:
REMARK  status: ('A' for Active; 'I' for Inactive)
REMARK    1  A    between atoms: C_1  and  N_5
REMARK    2  A    between atoms: C_2  and  N_5
REMARK                            x       y       z     vdW  Elec       q    Type
REMARK                         _______ _______ _______ _____ _____    ______ ____
ROOT
ATOM      1  C   UNL     1     -28.136   2.423  44.700  0.00  0.00    +0.131 C 
ATOM      2  N   UNL     1     -27.116   3.123  43.916  0.00  0.00    -0.310 N 
ATOM      3  C   UNL     1     -26.607   4.288  44.362  0.00  0.00    +0.327 C 
ATOM      4  O   UNL     1     -25.762   4.868  43.713  0.00  0.00    -0.279 OA
ATOM      5  C   UNL     1     -26.648   2.556  42.649  0.00  0.00    +0.131 C 
ENDROOT
TORSDOF 0
ENDMDL
MODEL 4
REMARK VINA RESULT:      -2.4     10.466     11.262
REMARK  Name = DMF
REMARK  2 active torsions:
REMARK  status: ('A' for Active; 'I' for Inactive)
REMARK    1  A    between atoms: C_1  and  N_5
REMARK    2  A    between atoms: C_2  and  N_5
REMARK                            x       y       z     vdW  Elec       q    Type
REMARK                         _______ _______ _______ _____ _____    ______ ____
ROOT
ATOM      1  C   UNL     1     -10.443  -3.635  37.655  0.00  0.00    +0.131 C 
ATOM      2  N   UNL     1     -11.635  -4.305  38.181  0.00  0.00    -0.310 N 
ATOM      3  C   UNL     1     -12.834  -3.696  38.112  0.00  0.00    +0.327 C 
ATOM      4  O   UNL     1     -13.822  -4.250  38.547  0.00  0.00    -0.279 OA
ATOM      5  C   UNL     1     -11.523  -5.636  38.781  0.00  0.00    +0.131 C 
ENDROOT
TORSDOF 0
ENDMDL
MODEL 5
REMARK VINA RESULT:      -2.4      9.332      9.698
REMARK  Name = DMF
REMARK  2 active torsions:
REMARK  status: ('A' for Active; 'I' for Inactive)
REMARK    1  A    between atoms: C_1  and  N_5
REMARK    2  A    between atoms: C_2  and  N_5
REMARK                            x       y       z     vdW  Elec       q    Type
REMARK                         _______ _______ _______ _____ _____    ______ ____
ROOT
ATOM      1  C   UNL     1     -22.140   9.101  46.984  0.00  0.00    +0.131 C 
ATOM      2  N   UNL     1     -20.965   9.972  47.070  0.00  0.00    -0.310 N 
ATOM      3  C   UNL     1     -19.732   9.433  47.128  0.00  0.00    +0.327 C 
ATOM      4  O   UNL     1     -18.758  10.153  47.200  0.00  0.00    -0.279 OA
ATOM      5  C   UNL     1     -21.131  11.426  47.094  0.00  0.00    +0.131 C 
ENDROOT
TORSDOF 0
ENDMDL
MODEL 6
REMARK VINA RESULT:      -2.4      9.852     10.284
REMARK  Name = DMF
REMARK  2 active torsions:
REMARK  status: ('A' for Active; 'I' for Inactive)
REMARK    1  A    between atoms: C_1  and  N_5
REMARK    2  A    between atoms: C_2  and  N_5
REMARK                            x       y       z     vdW  Elec       q    Type
REMARK                         _______ _______ _______ _____ _____    ______ ____
ROOT
ATOM      1  C   UNL     1     -25.882   4.202  44.254  0.00  0.00    +0.131 C 
ATOM      2  N   UNL     1     -26.719   3.253  43.515  0.00  0.00    -0.310 N 
ATOM      3  C   UNL     1     -26.559   3.111  42.185  0.00  0.00    +0.327 C 
ATOM      4  O   UNL     1     -27.252   2.325  41.572  0.00  0.00    -0.279 OA
ATOM      5  C   UNL     1     -27.727   2.461  44.222  0.00  0.00    +0.131 C 
ENDROOT
TORSDOF 0
ENDMDL
MODEL 7
REMARK VINA RESULT:      -2.3      7.787      8.194
REMARK  Name = DMF
REMARK  2 active torsions:
REMARK  status: ('A' for Active; 'I' for Inactive)
REMARK    1  A    between atoms: C_1  and  N_5
REMARK    2  A    between atoms: C_2  and  N_5
REMARK                            x       y       z     vdW  Elec       q    Type
REMARK                         _______ _______ _______ _____ _____    ______ ____
ROOT
ATOM      1  C   UNL     1     -25.883   4.687  44.425  0.00  0.00    +0.131 C 
ATOM      2  N   UNL     1     -24.418   4.652  44.413  0.00  0.00    -0.310 N 
ATOM      3  C   UNL     1     -23.776   3.582  43.907  0.00  0.00    +0.327 C 
ATOM      4  O   UNL     1     -22.563   3.552  43.897  0.00  0.00    -0.279 OA
ATOM      5  C   UNL     1     -23.654   5.779  44.951  0.00  0.00    +0.131 C 
ENDROOT
TORSDOF 0
ENDMDL
MODEL 8
REMARK VINA RESULT:      -2.3     11.094     11.756
REMARK  Name = DMF
REMARK  2 active torsions:
REMARK  status: ('A' for Active; 'I' for Inactive)
REMARK    1  A    between atoms: C_1  and  N_5
REMARK    2  A    between atoms: C_2  and  N_5
REMARK                            x       y       z     vdW  Elec       q    Type
REMARK                         _______ _______ _______ _____ _____    ______ ____
ROOT
ATOM      1  C   UNL     1      -9.502  -3.531  37.178  0.00  0.00    +0.131 C 
ATOM      2  N   UNL     1     -10.814  -4.019  37.612  0.00  0.00    -0.310 N 
ATOM      3  C   UNL     1     -10.980  -5.321  37.914  0.00  0.00    +0.327 C 
ATOM      4  O   UNL     1     -12.066  -5.726  38.273  0.00  0.00    -0.279 OA
ATOM      5  C   UNL     1     -11.942  -3.092  37.716  0.00  0.00    +0.131 C 
ENDROOT
TORSDOF 0
ENDMDL
MODEL 9
REMARK VINA RESULT:      -2.3      9.859     10.559
REMARK  Name = DMF
REMARK  2 active torsions:
REMARK  status: ('A' for Active; 'I' for Inactive)
REMARK    1  A    between atoms: C_1  and  N_5
REMARK    2  A    between atoms: C_2  and  N_5
REMARK                            x       y       z     vdW  Elec       q    Type
REMARK                         _______ _______ _______ _____ _____    ______ ____
ROOT
ATOM      1  C   UNL     1     -10.363  -3.679  38.026  0.00  0.00    +0.131 C 
ATOM      2  N   UNL     1     -11.814  -3.512  38.144  0.00  0.00    -0.310 N 
ATOM      3  C   UNL     1     -12.572  -4.526  38.605  0.00  0.00    +0.327 C 
ATOM      4  O   UNL     1     -13.774  -4.388  38.703  0.00  0.00    -0.279 OA
ATOM      5  C   UNL     1     -12.439  -2.245  37.760  0.00  0.00    +0.131 C 
ENDROOT
TORSDOF 0
ENDMDL
