MODEL 1
REMARK VINA RESULT:      -4.7      0.000      0.000
REMARK  Name = HBX
REMARK  1 active torsions:
REMARK  status: ('A' for Active; 'I' for Inactive)
REMARK    1  A    between atoms: C_1  and  C_3
REMARK                            x       y       z     vdW  Elec       q    Type
REMARK                         _______ _______ _______ _____ _____    ______ ____
ROOT
ATOM      1  C   UNL     1     -12.831  -3.802  38.186  0.00  0.00    +0.014 A 
ATOM      2  C   UNL     1     -11.993  -3.078  37.332  0.00  0.00    +0.011 A 
ATOM      3  C   UNL     1     -10.652  -3.394  37.255  0.00  0.00    +0.001 A 
ATOM      4  C   UNL     1     -10.139  -4.433  38.013  0.00  0.00    +0.000 A 
ATOM      5  C   UNL     1     -10.963  -5.158  38.856  0.00  0.00    +0.001 A 
ATOM      6  C   UNL     1     -12.304  -4.850  38.948  0.00  0.00    +0.011 A 
ENDROOT
BRANCH   1   7
ATOM      7  C   UNL     1     -14.261  -3.466  38.278  0.00  0.00    +0.258 C 
ATOM      8  O   UNL     1     -15.094  -4.249  37.872  0.00  0.00    -0.296 OA
ENDBRANCH   1   7
TORSDOF 1
ENDMDL
MODEL 2
REMARK VINA RESULT:      -4.6      0.084      1.706
REMARK  Name = HBX
REMARK  1 active torsions:
REMARK  status: ('A' for Active; 'I' for Inactive)
REMARK    1  A    between atoms: C_1  and  C_3
REMARK                            x       y       z     vdW  Elec       q    Type
REMARK                         _______ _______ _______ _____ _____    ______ ____
ROOT
ATOM      1  C   UNL     1     -12.862  -3.823  38.177  0.00  0.00    +0.014 A 
ATOM      2  C   UNL     1     -12.320  -4.851  38.954  0.00  0.00    +0.011 A 
ATOM      3  C   UNL     1     -10.972  -5.135  38.872  0.00  0.00    +0.001 A 
ATOM      4  C   UNL     1     -10.156  -4.398  38.031  0.00  0.00    +0.000 A 
ATOM      5  C   UNL     1     -10.684  -3.375  37.264  0.00  0.00    +0.001 A 
ATOM      6  C   UNL     1     -12.030  -3.083  37.330  0.00  0.00    +0.011 A 
ENDROOT
BRANCH   1   7
ATOM      7  C   UNL     1     -14.299  -3.517  38.254  0.00  0.00    +0.258 C 
ATOM      8  O   UNL     1     -15.099  -4.213  37.665  0.00  0.00    -0.296 OA
ENDBRANCH   1   7
TORSDOF 1
ENDMDL
MODEL 3
REMARK VINA RESULT:      -4.5      0.924      1.001
REMARK  Name = HBX
REMARK  1 active torsions:
REMARK  status: ('A' for Active; 'I' for Inactive)
REMARK    1  A    between atoms: C_1  and  C_3
REMARK                            x       y       z     vdW  Elec       q    Type
REMARK                         _______ _______ _______ _____ _____    ______ ____
ROOT
ATOM      1  C   UNL     1     -12.130  -4.205  38.167  0.00  0.00    +0.014 A 
ATOM      2  C   UNL     1     -11.399  -3.170  37.579  0.00  0.00    +0.011 A 
ATOM      3  C   UNL     1     -10.164  -3.432  37.022  0.00  0.00    +0.001 A 
ATOM      4  C   UNL     1      -9.656  -4.720  37.035  0.00  0.00    +0.000 A 
ATOM      5  C   UNL     1     -10.377  -5.751  37.609  0.00  0.00    +0.001 A 
ATOM      6  C   UNL     1     -11.609  -5.503  38.176  0.00  0.00    +0.011 A 
ENDROOT
BRANCH   1   7
ATOM      7  C   UNL     1     -13.445  -3.933  38.770  0.00  0.00    +0.258 C 
ATOM      8  O   UNL     1     -14.457  -4.141  38.134  0.00  0.00    -0.296 OA
ENDBRANCH   1   7
TORSDOF 1
ENDMDL
MODEL 4
REMARK VINA RESULT:      -4.5      2.558      3.499
REMARK  Name = HBX
REMARK  1 active torsions:
REMARK  status: ('A' for Active; 'I' for Inactive)
REMARK    1  A    between atoms: C_1  and  C_3
REMARK                            x       y       z     vdW  Elec       q    Type
REMARK                         _______ _______ _______ _____ _____    ______ ____
ROOT
ATOM      1  C   UNL     1     -10.500  -3.877  37.417  0.00  0.00    +0.014 A 
ATOM      2  C   UNL     1     -11.559  -2.965  37.435  0.00  0.00    +0.011 A 
ATOM      3  C   UNL     1     -12.683  -3.235  38.187  0.00  0.00    +0.001 A 
ATOM      4  C   UNL     1     -12.759  -4.400  38.930  0.00  0.00    +0.000 A 
ATOM      5  C   UNL     1     -11.712  -5.305  38.922  0.00  0.00    +0.001 A 
ATOM      6  C   UNL     1     -10.584  -5.052  38.170  0.00  0.00    +0.011 A 
ENDROOT
BRANCH   1   7
ATOM      7  C   UNL     1      -9.299  -3.600  36.612  0.00  0.00    +0.258 C 
ATOM      8  O   UNL     1      -8.373  -2.985  37.097  0.00  0.00    -0.296 OA
ENDBRANCH   1   7
TORSDOF 1
ENDMDL
MODEL 5
REMARK VINA RESULT:      -4.4     17.407     18.728
REMARK  Name = HBX
REMARK  1 active torsions:
REMARK  status: ('A' for Active; 'I' for Inactive)
REMARK    1  A    between atoms: C_1  and  C_3
REMARK                            x       y       z     vdW  Elec       q    Type
REMARK                         _______ _______ _______ _____ _____    ______ ____
ROOT
ATOM      1  C   UNL     1     -27.201   5.026  45.270  0.00  0.00    +0.014 A 
ATOM      2  C   UNL     1     -26.264   4.505  44.372  0.00  0.00    +0.011 A 
ATOM      3  C   UNL     1     -26.447   3.243  43.845  0.00  0.00    +0.001 A 
ATOM      4  C   UNL     1     -27.560   2.498  44.196  0.00  0.00    +0.000 A 
ATOM      5  C   UNL     1     -28.494   3.009  45.080  0.00  0.00    +0.001 A 
ATOM      6  C   UNL     1     -28.322   4.267  45.619  0.00  0.00    +0.011 A 
ENDROOT
BRANCH   1   7
ATOM      7  C   UNL     1     -27.010   6.369  45.842  0.00  0.00    +0.258 C 
ATOM      8  O   UNL     1     -26.703   7.295  45.122  0.00  0.00    -0.296 OA
ENDBRANCH   1   7
TORSDOF 1
ENDMDL
MODEL 6
REMARK VINA RESULT:      -4.4      1.874      2.966
REMARK  Name = HBX
REMARK  1 active torsions:
REMARK  status: ('A' for Active; 'I' for Inactive)
REMARK    1  A    between atoms: C_1  and  C_3
REMARK                            x       y       z     vdW  Elec       q    Type
REMARK                         _______ _______ _______ _____ _____    ______ ____
ROOT
ATOM      1  C   UNL     1     -10.528  -4.986  37.769  0.00  0.00    +0.014 A 
ATOM      2  C   UNL     1      -9.882  -5.906  36.938  0.00  0.00    +0.011 A 
ATOM      3  C   UNL     1      -8.837  -5.491  36.137  0.00  0.00    +0.001 A 
ATOM      4  C   UNL     1      -8.424  -4.171  36.164  0.00  0.00    +0.000 A 
ATOM      5  C   UNL     1      -9.055  -3.256  36.988  0.00  0.00    +0.001 A 
ATOM      6  C   UNL     1     -10.103  -3.654  37.790  0.00  0.00    +0.011 A 
ENDROOT
BRANCH   1   7
ATOM      7  C   UNL     1     -11.647  -5.419  38.622  0.00  0.00    +0.258 C 
ATOM      8  O   UNL     1     -12.734  -4.895  38.507  0.00  0.00    -0.296 OA
ENDBRANCH   1   7
TORSDOF 1
ENDMDL
MODEL 7
REMARK VINA RESULT:      -4.2     14.055     15.734
REMARK  Name = HBX
REMARK  1 active torsions:
REMARK  status: ('A' for Active; 'I' for Inactive)
REMARK    1  A    between atoms: C_1  and  C_3
REMARK                            x       y       z     vdW  Elec       q    Type
REMARK                         _______ _______ _______ _____ _____    ______ ____
ROOT
ATOM      1  C   UNL     1     -24.373   2.992  43.067  0.00  0.00    +0.014 A 
ATOM      2  C   UNL     1     -24.912   2.279  41.993  0.00  0.00    +0.011 A 
ATOM      3  C   UNL     1     -26.267   2.019  41.952  0.00  0.00    +0.001 A 
ATOM      4  C   UNL     1     -27.092   2.472  42.967  0.00  0.00    +0.000 A 
ATOM      5  C   UNL     1     -26.566   3.183  44.031  0.00  0.00    +0.001 A 
ATOM      6  C   UNL     1     -25.214   3.446  44.089  0.00  0.00    +0.011 A 
ENDROOT
BRANCH   1   7
ATOM      7  C   UNL     1     -22.929   3.268  43.121  0.00  0.00    +0.258 C 
ATOM      8  O   UNL     1     -22.478   3.966  44.005  0.00  0.00    -0.296 OA
ENDBRANCH   1   7
TORSDOF 1
ENDMDL
MODEL 8
REMARK VINA RESULT:      -4.0     15.217     16.566
REMARK  Name = HBX
REMARK  1 active torsions:
REMARK  status: ('A' for Active; 'I' for Inactive)
REMARK    1  A    between atoms: C_1  and  C_3
REMARK                            x       y       z     vdW  Elec       q    Type
REMARK                         _______ _______ _______ _____ _____    ______ ____
ROOT
ATOM      1  C   UNL     1     -26.141   3.890  43.779  0.00  0.00    +0.014 A 
ATOM      2  C   UNL     1     -24.776   3.880  43.478  0.00  0.00    +0.011 A 
ATOM      3  C   UNL     1     -24.283   2.979  42.557  0.00  0.00    +0.001 A 
ATOM      4  C   UNL     1     -25.139   2.094  41.924  0.00  0.00    +0.000 A 
ATOM      5  C   UNL     1     -26.492   2.102  42.212  0.00  0.00    +0.001 A 
ATOM      6  C   UNL     1     -26.999   2.992  43.135  0.00  0.00    +0.011 A 
ENDROOT
BRANCH   1   7
ATOM      7  C   UNL     1     -26.674   4.844  44.765  0.00  0.00    +0.258 C 
ATOM      8  O   UNL     1     -26.167   5.939  44.883  0.00  0.00    -0.296 OA
ENDBRANCH   1   7
TORSDOF 1
ENDMDL
MODEL 9
REMARK VINA RESULT:      -4.0      3.072      4.046
REMARK  Name = HBX
REMARK  1 active torsions:
REMARK  status: ('A' for Active; 'I' for Inactive)
REMARK    1  A    between atoms: C_1  and  C_3
REMARK                            x       y       z     vdW  Elec       q    Type
REMARK                         _______ _______ _______ _____ _____    ______ ____
ROOT
ATOM      1  C   UNL     1      -9.462  -3.819  36.955  0.00  0.00    +0.014 A 
ATOM      2  C   UNL     1      -9.918  -4.654  35.931  0.00  0.00    +0.011 A 
ATOM      3  C   UNL     1     -11.051  -5.418  36.122  0.00  0.00    +0.001 A 
ATOM      4  C   UNL     1     -11.742  -5.349  37.319  0.00  0.00    +0.000 A 
ATOM      5  C   UNL     1     -11.300  -4.520  38.335  0.00  0.00    +0.001 A 
ATOM      6  C   UNL     1     -10.166  -3.755  38.162  0.00  0.00    +0.011 A 
ENDROOT
BRANCH   1   7
ATOM      7  C   UNL     1      -8.251  -3.005  36.763  0.00  0.00    +0.258 C 
ATOM      8  O   UNL     1      -8.318  -1.950  36.170  0.00  0.00    -0.296 OA
ENDBRANCH   1   7
TORSDOF 1
ENDMDL
