MODEL 1
REMARK VINA RESULT:      -2.6      0.000      0.000
REMARK  Name = IPA
REMARK  3 active torsions:
REMARK  status: ('A' for Active; 'I' for Inactive)
REMARK    1  A    between atoms: C_1  and  C_2
REMARK    2  A    between atoms: C_2  and  C_3
REMARK    3  A    between atoms: C_2  and  O_4
REMARK                            x       y       z     vdW  Elec       q    Type
REMARK                         _______ _______ _______ _____ _____    ______ ____
ROOT
ATOM      1  C   UNL     1     -10.874  -4.558  39.023  0.00  0.00    +0.037 C 
ATOM      2  C   UNL     1     -12.363  -4.648  38.679  0.00  0.00    +0.108 C 
ATOM      3  C   UNL     1     -12.962  -3.242  38.635  0.00  0.00    +0.037 C 
ENDROOT
BRANCH   2   4
ATOM      4  O   UNL     1     -12.520  -5.273  37.405  0.00  0.00    -0.392 OA
ATOM      5  H   UNL     1     -13.439  -5.342  37.110  0.00  0.00    +0.210 HD
ENDBRANCH   2   4
TORSDOF 1
ENDMDL
MODEL 2
REMARK VINA RESULT:      -2.5     17.434     17.813
REMARK  Name = IPA
REMARK  3 active torsions:
REMARK  status: ('A' for Active; 'I' for Inactive)
REMARK    1  A    between atoms: C_1  and  C_2
REMARK    2  A    between atoms: C_2  and  C_3
REMARK    3  A    between atoms: C_2  and  O_4
REMARK                            x       y       z     vdW  Elec       q    Type
REMARK                         _______ _______ _______ _____ _____    ______ ____
ROOT
ATOM      1  C   UNL     1     -26.606   4.192  44.408  0.00  0.00    +0.037 C 
ATOM      2  C   UNL     1     -27.058   2.804  43.950  0.00  0.00    +0.108 C 
ATOM      3  C   UNL     1     -28.303   2.388  44.736  0.00  0.00    +0.037 C 
ENDROOT
BRANCH   2   4
ATOM      4  O   UNL     1     -27.364   2.839  42.555  0.00  0.00    -0.392 OA
ATOM      5  H   UNL     1     -27.009   2.092  42.055  0.00  0.00    +0.210 HD
ENDBRANCH   2   4
TORSDOF 1
ENDMDL
MODEL 3
REMARK VINA RESULT:      -2.5      0.750      1.919
REMARK  Name = IPA
REMARK  3 active torsions:
REMARK  status: ('A' for Active; 'I' for Inactive)
REMARK    1  A    between atoms: C_1  and  C_2
REMARK    2  A    between atoms: C_2  and  C_3
REMARK    3  A    between atoms: C_2  and  O_4
REMARK                            x       y       z     vdW  Elec       q    Type
REMARK                         _______ _______ _______ _____ _____    ______ ____
ROOT
ATOM      1  C   UNL     1     -13.156  -4.005  38.656  0.00  0.00    +0.037 C 
ATOM      2  C   UNL     1     -11.940  -4.628  37.966  0.00  0.00    +0.108 C 
ATOM      3  C   UNL     1     -11.076  -5.345  39.005  0.00  0.00    +0.037 C 
ENDROOT
BRANCH   2   4
ATOM      4  O   UNL     1     -12.379  -5.566  36.983  0.00  0.00    -0.392 OA
ATOM      5  H   UNL     1     -13.324  -5.518  36.787  0.00  0.00    +0.210 HD
ENDBRANCH   2   4
TORSDOF 1
ENDMDL
MODEL 4
REMARK VINA RESULT:      -2.5      1.834      2.413
REMARK  Name = IPA
REMARK  3 active torsions:
REMARK  status: ('A' for Active; 'I' for Inactive)
REMARK    1  A    between atoms: C_1  and  C_2
REMARK    2  A    between atoms: C_2  and  C_3
REMARK    3  A    between atoms: C_2  and  O_4
REMARK                            x       y       z     vdW  Elec       q    Type
REMARK                         _______ _______ _______ _____ _____    ______ ____
ROOT
ATOM      1  C   UNL     1     -10.951  -4.553  38.747  0.00  0.00    +0.037 C 
ATOM      2  C   UNL     1     -10.831  -3.521  37.623  0.00  0.00    +0.108 C 
ATOM      3  C   UNL     1      -9.392  -3.496  37.105  0.00  0.00    +0.037 C 
ENDROOT
BRANCH   2   4
ATOM      4  O   UNL     1     -11.715  -3.873  36.558  0.00  0.00    -0.392 OA
ATOM      5  H   UNL     1     -11.440  -3.541  35.693  0.00  0.00    +0.210 HD
ENDBRANCH   2   4
TORSDOF 1
ENDMDL
MODEL 5
REMARK VINA RESULT:      -2.5      2.203      2.338
REMARK  Name = IPA
REMARK  3 active torsions:
REMARK  status: ('A' for Active; 'I' for Inactive)
REMARK    1  A    between atoms: C_1  and  C_2
REMARK    2  A    between atoms: C_2  and  C_3
REMARK    3  A    between atoms: C_2  and  O_4
REMARK                            x       y       z     vdW  Elec       q    Type
REMARK                         _______ _______ _______ _____ _____    ______ ____
ROOT
ATOM      1  C   UNL     1     -11.167  -3.324  37.526  0.00  0.00    +0.037 C 
ATOM      2  C   UNL     1     -12.660  -3.015  37.649  0.00  0.00    +0.108 C 
ATOM      3  C   UNL     1     -13.286  -3.935  38.699  0.00  0.00    +0.037 C 
ENDROOT
BRANCH   2   4
ATOM      4  O   UNL     1     -12.834  -1.654  38.043  0.00  0.00    -0.392 OA
ATOM      5  H   UNL     1     -12.633  -1.014  37.348  0.00  0.00    +0.210 HD
ENDBRANCH   2   4
TORSDOF 1
ENDMDL
MODEL 6
REMARK VINA RESULT:      -2.5     17.190     17.852
REMARK  Name = IPA
REMARK  3 active torsions:
REMARK  status: ('A' for Active; 'I' for Inactive)
REMARK    1  A    between atoms: C_1  and  C_2
REMARK    2  A    between atoms: C_2  and  C_3
REMARK    3  A    between atoms: C_2  and  O_4
REMARK                            x       y       z     vdW  Elec       q    Type
REMARK                         _______ _______ _______ _____ _____    ______ ____
ROOT
ATOM      1  C   UNL     1     -28.252   2.386  44.722  0.00  0.00    +0.037 C 
ATOM      2  C   UNL     1     -27.009   2.973  44.048  0.00  0.00    +0.108 C 
ATOM      3  C   UNL     1     -26.852   2.368  42.652  0.00  0.00    +0.037 C 
ENDROOT
BRANCH   2   4
ATOM      4  O   UNL     1     -27.151   4.390  43.940  0.00  0.00    -0.392 OA
ATOM      5  H   UNL     1     -27.949   4.671  43.474  0.00  0.00    +0.210 HD
ENDBRANCH   2   4
TORSDOF 1
ENDMDL
MODEL 7
REMARK VINA RESULT:      -2.4     19.043     19.409
REMARK  Name = IPA
REMARK  3 active torsions:
REMARK  status: ('A' for Active; 'I' for Inactive)
REMARK    1  A    between atoms: C_1  and  C_2
REMARK    2  A    between atoms: C_2  and  C_3
REMARK    3  A    between atoms: C_2  and  O_4
REMARK                            x       y       z     vdW  Elec       q    Type
REMARK                         _______ _______ _______ _____ _____    ______ ____
ROOT
ATOM      1  C   UNL     1     -26.861   5.003  44.838  0.00  0.00    +0.037 C 
ATOM      2  C   UNL     1     -28.140   4.489  45.502  0.00  0.00    +0.108 C 
ATOM      3  C   UNL     1     -28.347   3.017  45.141  0.00  0.00    +0.037 C 
ENDROOT
BRANCH   2   4
ATOM      4  O   UNL     1     -28.027   4.622  46.919  0.00  0.00    -0.392 OA
ATOM      5  H   UNL     1     -28.836   4.927  47.352  0.00  0.00    +0.210 HD
ENDBRANCH   2   4
TORSDOF 1
ENDMDL
MODEL 8
REMARK VINA RESULT:      -2.4     19.938     20.732
REMARK  Name = IPA
REMARK  3 active torsions:
REMARK  status: ('A' for Active; 'I' for Inactive)
REMARK    1  A    between atoms: C_1  and  C_2
REMARK    2  A    between atoms: C_2  and  C_3
REMARK    3  A    between atoms: C_2  and  O_4
REMARK                            x       y       z     vdW  Elec       q    Type
REMARK                         _______ _______ _______ _____ _____    ______ ____
ROOT
ATOM      1  C   UNL     1     -21.415  11.030  45.702  0.00  0.00    +0.037 C 
ATOM      2  C   UNL     1     -21.742  12.161  46.681  0.00  0.00    +0.108 C 
ATOM      3  C   UNL     1     -23.049  11.844  47.408  0.00  0.00    +0.037 C 
ENDROOT
BRANCH   2   4
ATOM      4  O   UNL     1     -20.685  12.288  47.632  0.00  0.00    -0.392 OA
ATOM      5  H   UNL     1     -20.080  11.533  47.652  0.00  0.00    +0.210 HD
ENDBRANCH   2   4
TORSDOF 1
ENDMDL
MODEL 9
REMARK VINA RESULT:      -2.4     16.238     16.731
REMARK  Name = IPA
REMARK  3 active torsions:
REMARK  status: ('A' for Active; 'I' for Inactive)
REMARK    1  A    between atoms: C_1  and  C_2
REMARK    2  A    between atoms: C_2  and  C_3
REMARK    3  A    between atoms: C_2  and  O_4
REMARK                            x       y       z     vdW  Elec       q    Type
REMARK                         _______ _______ _______ _____ _____    ______ ____
ROOT
ATOM      1  C   UNL     1     -25.619   3.345  43.974  0.00  0.00    +0.037 C 
ATOM      2  C   UNL     1     -26.559   3.091  42.793  0.00  0.00    +0.108 C 
ATOM      3  C   UNL     1     -25.933   2.055  41.857  0.00  0.00    +0.037 C 
ENDROOT
BRANCH   2   4
ATOM      4  O   UNL     1     -27.810   2.602  43.277  0.00  0.00    -0.392 OA
ATOM      5  H   UNL     1     -28.315   3.250  43.787  0.00  0.00    +0.210 HD
ENDBRANCH   2   4
TORSDOF 1
ENDMDL
