MODEL 1
REMARK VINA RESULT:      -3.1      0.000      0.000
REMARK  Name = TBU
REMARK  4 active torsions:
REMARK  status: ('A' for Active; 'I' for Inactive)
REMARK    1  A    between atoms: O_1  and  C_2
REMARK    2  A    between atoms: C_2  and  C_3
REMARK    3  A    between atoms: C_2  and  C_4
REMARK    4  A    between atoms: C_2  and  C_5
REMARK                            x       y       z     vdW  Elec       q    Type
REMARK                         _______ _______ _______ _____ _____    ______ ____
ROOT
ATOM      1  C   UNL     1     -11.957  -4.427  38.026  0.00  0.00    +0.058 C 
ATOM      2  C   UNL     1     -10.948  -3.467  37.393  0.00  0.00    +0.041 C 
ATOM      3  C   UNL     1     -11.258  -5.268  39.096  0.00  0.00    +0.041 C 
ATOM      4  C   UNL     1     -13.090  -3.624  38.668  0.00  0.00    +0.041 C 
ENDROOT
BRANCH   1   5
ATOM      5  O   UNL     1     -12.494  -5.287  37.019  0.00  0.00    -0.389 OA
ATOM      6  H   UNL     1     -11.868  -5.947  36.691  0.00  0.00    +0.210 HD
ENDBRANCH   1   5
TORSDOF 1
ENDMDL
MODEL 2
REMARK VINA RESULT:      -3.1      0.214      1.926
REMARK  Name = TBU
REMARK  4 active torsions:
REMARK  status: ('A' for Active; 'I' for Inactive)
REMARK    1  A    between atoms: O_1  and  C_2
REMARK    2  A    between atoms: C_2  and  C_3
REMARK    3  A    between atoms: C_2  and  C_4
REMARK    4  A    between atoms: C_2  and  C_5
REMARK                            x       y       z     vdW  Elec       q    Type
REMARK                         _______ _______ _______ _____ _____    ______ ____
ROOT
ATOM      1  C   UNL     1     -12.048  -4.504  37.949  0.00  0.00    +0.058 C 
ATOM      2  C   UNL     1     -13.150  -3.703  38.644  0.00  0.00    +0.041 C 
ATOM      3  C   UNL     1     -10.948  -3.552  37.475  0.00  0.00    +0.041 C 
ATOM      4  C   UNL     1     -11.456  -5.517  38.932  0.00  0.00    +0.041 C 
ENDROOT
BRANCH   1   5
ATOM      5  O   UNL     1     -12.597  -5.195  36.825  0.00  0.00    -0.389 OA
ATOM      6  H   UNL     1     -12.526  -4.709  35.992  0.00  0.00    +0.210 HD
ENDBRANCH   1   5
TORSDOF 1
ENDMDL
MODEL 3
REMARK VINA RESULT:      -3.1      0.214      1.957
REMARK  Name = TBU
REMARK  4 active torsions:
REMARK  status: ('A' for Active; 'I' for Inactive)
REMARK    1  A    between atoms: O_1  and  C_2
REMARK    2  A    between atoms: C_2  and  C_3
REMARK    3  A    between atoms: C_2  and  C_4
REMARK    4  A    between atoms: C_2  and  C_5
REMARK                            x       y       z     vdW  Elec       q    Type
REMARK                         _______ _______ _______ _____ _____    ______ ____
ROOT
ATOM      1  C   UNL     1     -12.048  -4.504  37.949  0.00  0.00    +0.058 C 
ATOM      2  C   UNL     1     -11.456  -5.517  38.932  0.00  0.00    +0.041 C 
ATOM      3  C   UNL     1     -13.150  -3.703  38.644  0.00  0.00    +0.041 C 
ATOM      4  C   UNL     1     -10.948  -3.552  37.475  0.00  0.00    +0.041 C 
ENDROOT
BRANCH   1   5
ATOM      5  O   UNL     1     -12.597  -5.195  36.825  0.00  0.00    -0.389 OA
ATOM      6  H   UNL     1     -12.662  -4.656  36.026  0.00  0.00    +0.210 HD
ENDBRANCH   1   5
TORSDOF 1
ENDMDL
MODEL 4
REMARK VINA RESULT:      -2.9      1.779      2.559
REMARK  Name = TBU
REMARK  4 active torsions:
REMARK  status: ('A' for Active; 'I' for Inactive)
REMARK    1  A    between atoms: O_1  and  C_2
REMARK    2  A    between atoms: C_2  and  C_3
REMARK    3  A    between atoms: C_2  and  C_4
REMARK    4  A    between atoms: C_2  and  C_5
REMARK                            x       y       z     vdW  Elec       q    Type
REMARK                         _______ _______ _______ _____ _____    ______ ____
ROOT
ATOM      1  C   UNL     1     -10.317  -4.358  37.231  0.00  0.00    +0.058 C 
ATOM      2  C   UNL     1      -9.854  -5.764  36.844  0.00  0.00    +0.041 C 
ATOM      3  C   UNL     1     -10.748  -4.350  38.700  0.00  0.00    +0.041 C 
ATOM      4  C   UNL     1      -9.165  -3.370  37.033  0.00  0.00    +0.041 C 
ENDROOT
BRANCH   1   5
ATOM      5  O   UNL     1     -11.420  -3.975  36.408  0.00  0.00    -0.389 OA
ATOM      6  H   UNL     1     -11.849  -3.154  36.683  0.00  0.00    +0.210 HD
ENDBRANCH   1   5
TORSDOF 1
ENDMDL
MODEL 5
REMARK VINA RESULT:      -2.8      1.976      2.005
REMARK  Name = TBU
REMARK  4 active torsions:
REMARK  status: ('A' for Active; 'I' for Inactive)
REMARK    1  A    between atoms: O_1  and  C_2
REMARK    2  A    between atoms: C_2  and  C_3
REMARK    3  A    between atoms: C_2  and  C_4
REMARK    4  A    between atoms: C_2  and  C_5
REMARK                            x       y       z     vdW  Elec       q    Type
REMARK                         _______ _______ _______ _____ _____    ______ ____
ROOT
ATOM      1  C   UNL     1     -10.668  -5.137  37.490  0.00  0.00    +0.058 C 
ATOM      2  C   UNL     1     -10.077  -3.726  37.478  0.00  0.00    +0.041 C 
ATOM      3  C   UNL     1     -11.079  -5.505  38.917  0.00  0.00    +0.041 C 
ATOM      4  C   UNL     1     -11.895  -5.184  36.578  0.00  0.00    +0.041 C 
ENDROOT
BRANCH   1   5
ATOM      5  O   UNL     1      -9.690  -6.067  37.020  0.00  0.00    -0.389 OA
ATOM      6  H   UNL     1      -9.933  -6.510  36.196  0.00  0.00    +0.210 HD
ENDBRANCH   1   5
TORSDOF 1
ENDMDL
MODEL 6
REMARK VINA RESULT:      -2.8     15.820     16.787
REMARK  Name = TBU
REMARK  4 active torsions:
REMARK  status: ('A' for Active; 'I' for Inactive)
REMARK    1  A    between atoms: O_1  and  C_2
REMARK    2  A    between atoms: C_2  and  C_3
REMARK    3  A    between atoms: C_2  and  C_4
REMARK    4  A    between atoms: C_2  and  C_5
REMARK                            x       y       z     vdW  Elec       q    Type
REMARK                         _______ _______ _______ _____ _____    ______ ____
ROOT
ATOM      1  C   UNL     1     -26.298   3.068  42.337  0.00  0.00    +0.058 C 
ATOM      2  C   UNL     1     -25.486   4.171  43.019  0.00  0.00    +0.041 C 
ATOM      3  C   UNL     1     -25.347   2.007  41.780  0.00  0.00    +0.041 C 
ATOM      4  C   UNL     1     -27.240   2.424  43.356  0.00  0.00    +0.041 C 
ENDROOT
BRANCH   1   5
ATOM      5  O   UNL     1     -27.063   3.630  41.270  0.00  0.00    -0.389 OA
ATOM      6  H   UNL     1     -26.626   4.365  40.817  0.00  0.00    +0.210 HD
ENDBRANCH   1   5
TORSDOF 1
ENDMDL
MODEL 7
REMARK VINA RESULT:      -2.8      1.610      2.157
REMARK  Name = TBU
REMARK  4 active torsions:
REMARK  status: ('A' for Active; 'I' for Inactive)
REMARK    1  A    between atoms: O_1  and  C_2
REMARK    2  A    between atoms: C_2  and  C_3
REMARK    3  A    between atoms: C_2  and  C_4
REMARK    4  A    between atoms: C_2  and  C_5
REMARK                            x       y       z     vdW  Elec       q    Type
REMARK                         _______ _______ _______ _____ _____    ______ ____
ROOT
ATOM      1  C   UNL     1     -12.960  -3.567  37.838  0.00  0.00    +0.058 C 
ATOM      2  C   UNL     1     -11.569  -3.552  37.201  0.00  0.00    +0.041 C 
ATOM      3  C   UNL     1     -13.174  -2.270  38.623  0.00  0.00    +0.041 C 
ATOM      4  C   UNL     1     -14.021  -3.679  36.741  0.00  0.00    +0.041 C 
ENDROOT
BRANCH   1   5
ATOM      5  O   UNL     1     -13.067  -4.683  38.723  0.00  0.00    -0.389 OA
ATOM      6  H   UNL     1     -13.960  -4.830  39.063  0.00  0.00    +0.210 HD
ENDBRANCH   1   5
TORSDOF 1
ENDMDL
MODEL 8
REMARK VINA RESULT:      -2.7      2.003      2.507
REMARK  Name = TBU
REMARK  4 active torsions:
REMARK  status: ('A' for Active; 'I' for Inactive)
REMARK    1  A    between atoms: O_1  and  C_2
REMARK    2  A    between atoms: C_2  and  C_3
REMARK    3  A    between atoms: C_2  and  C_4
REMARK    4  A    between atoms: C_2  and  C_5
REMARK                            x       y       z     vdW  Elec       q    Type
REMARK                         _______ _______ _______ _____ _____    ______ ____
ROOT
ATOM      1  C   UNL     1     -12.853  -3.255  37.712  0.00  0.00    +0.058 C 
ATOM      2  C   UNL     1     -11.455  -3.476  37.132  0.00  0.00    +0.041 C 
ATOM      3  C   UNL     1     -13.905  -3.644  36.671  0.00  0.00    +0.041 C 
ATOM      4  C   UNL     1     -13.029  -4.121  38.962  0.00  0.00    +0.041 C 
ENDROOT
BRANCH   1   5
ATOM      5  O   UNL     1     -13.013  -1.879  38.060  0.00  0.00    -0.389 OA
ATOM      6  H   UNL     1     -13.873  -1.669  38.449  0.00  0.00    +0.210 HD
ENDBRANCH   1   5
TORSDOF 1
ENDMDL
MODEL 9
REMARK VINA RESULT:      -2.7     16.493     17.164
REMARK  Name = TBU
REMARK  4 active torsions:
REMARK  status: ('A' for Active; 'I' for Inactive)
REMARK    1  A    between atoms: O_1  and  C_2
REMARK    2  A    between atoms: C_2  and  C_3
REMARK    3  A    between atoms: C_2  and  C_4
REMARK    4  A    between atoms: C_2  and  C_5
REMARK                            x       y       z     vdW  Elec       q    Type
REMARK                         _______ _______ _______ _____ _____    ______ ____
ROOT
ATOM      1  C   UNL     1     -26.583   2.846  42.988  0.00  0.00    +0.058 C 
ATOM      2  C   UNL     1     -26.244   1.713  42.017  0.00  0.00    +0.041 C 
ATOM      3  C   UNL     1     -27.656   2.372  43.970  0.00  0.00    +0.041 C 
ATOM      4  C   UNL     1     -25.325   3.246  43.762  0.00  0.00    +0.041 C 
ENDROOT
BRANCH   1   5
ATOM      5  O   UNL     1     -27.070   3.972  42.256  0.00  0.00    -0.389 OA
ATOM      6  H   UNL     1     -27.542   4.619  42.798  0.00  0.00    +0.210 HD
ENDBRANCH   1   5
TORSDOF 1
ENDMDL
