MODEL 1
REMARK VINA RESULT:      -3.1      0.000      0.000
REMARK  Name = URE
REMARK  0 active torsions:
REMARK  status: ('A' for Active; 'I' for Inactive)
REMARK                            x       y       z     vdW  Elec       q    Type
REMARK                         _______ _______ _______ _____ _____    ______ ____
ROOT
ATOM      1  C   UNL     1     -15.553  -3.871  37.489  0.00  0.00    +0.294 C 
ATOM      2  N   UNL     1     -16.520  -3.087  38.004  0.00  0.00    -0.314 N 
ATOM      3  H   UNL     1     -17.340  -2.941  37.507  0.00  0.00    +0.146 HD
ATOM      4  H   UNL     1     -16.396  -2.669  38.870  0.00  0.00    +0.146 HD
ATOM      5  N   UNL     1     -15.725  -4.453  36.286  0.00  0.00    -0.314 N 
ATOM      6  H   UNL     1     -16.546  -4.309  35.791  0.00  0.00    +0.146 HD
ATOM      7  H   UNL     1     -15.028  -5.017  35.916  0.00  0.00    +0.146 HD
ATOM      8  O   UNL     1     -14.525  -4.055  38.111  0.00  0.00    -0.253 OA
ENDROOT
TORSDOF 0
ENDMDL
MODEL 2
REMARK VINA RESULT:      -3.1      0.000      1.650
REMARK  Name = URE
REMARK  0 active torsions:
REMARK  status: ('A' for Active; 'I' for Inactive)
REMARK                            x       y       z     vdW  Elec       q    Type
REMARK                         _______ _______ _______ _____ _____    ______ ____
ROOT
ATOM      1  C   UNL     1     -15.553  -3.872  37.489  0.00  0.00    +0.294 C 
ATOM      2  N   UNL     1     -15.724  -4.453  36.286  0.00  0.00    -0.314 N 
ATOM      3  H   UNL     1     -16.545  -4.307  35.790  0.00  0.00    +0.146 HD
ATOM      4  H   UNL     1     -15.028  -5.017  35.916  0.00  0.00    +0.146 HD
ATOM      5  N   UNL     1     -16.520  -3.087  38.004  0.00  0.00    -0.314 N 
ATOM      6  H   UNL     1     -17.339  -2.939  37.506  0.00  0.00    +0.146 HD
ATOM      7  H   UNL     1     -16.396  -2.669  38.870  0.00  0.00    +0.146 HD
ATOM      8  O   UNL     1     -14.525  -4.055  38.110  0.00  0.00    -0.253 OA
ENDROOT
TORSDOF 0
ENDMDL
MODEL 3
REMARK VINA RESULT:      -3.0      8.769      8.897
REMARK  Name = URE
REMARK  0 active torsions:
REMARK  status: ('A' for Active; 'I' for Inactive)
REMARK                            x       y       z     vdW  Elec       q    Type
REMARK                         _______ _______ _______ _____ _____    ______ ____
ROOT
ATOM      1  C   UNL     1     -17.583   4.440  39.256  0.00  0.00    +0.294 C 
ATOM      2  N   UNL     1     -18.184   4.930  38.155  0.00  0.00    -0.314 N 
ATOM      3  H   UNL     1     -18.994   5.457  38.239  0.00  0.00    +0.146 HD
ATOM      4  H   UNL     1     -17.807   4.757  37.278  0.00  0.00    +0.146 HD
ATOM      5  N   UNL     1     -18.106   4.680  40.474  0.00  0.00    -0.314 N 
ATOM      6  H   UNL     1     -18.914   5.209  40.558  0.00  0.00    +0.146 HD
ATOM      7  H   UNL     1     -17.673   4.326  41.267  0.00  0.00    +0.146 HD
ATOM      8  O   UNL     1     -16.568   3.780  39.151  0.00  0.00    -0.253 OA
ENDROOT
TORSDOF 0
ENDMDL
MODEL 4
REMARK VINA RESULT:      -2.7      2.222      2.658
REMARK  Name = URE
REMARK  0 active torsions:
REMARK  status: ('A' for Active; 'I' for Inactive)
REMARK                            x       y       z     vdW  Elec       q    Type
REMARK                         _______ _______ _______ _____ _____    ______ ____
ROOT
ATOM      1  C   UNL     1     -13.715  -3.947  36.905  0.00  0.00    +0.294 C 
ATOM      2  N   UNL     1     -13.157  -4.927  36.168  0.00  0.00    -0.314 N 
ATOM      3  H   UNL     1     -12.905  -4.757  35.246  0.00  0.00    +0.146 HD
ATOM      4  H   UNL     1     -13.006  -5.802  36.558  0.00  0.00    +0.146 HD
ATOM      5  N   UNL     1     -13.924  -2.731  36.363  0.00  0.00    -0.314 N 
ATOM      6  H   UNL     1     -13.670  -2.560  35.443  0.00  0.00    +0.146 HD
ATOM      7  H   UNL     1     -14.326  -2.026  36.894  0.00  0.00    +0.146 HD
ATOM      8  O   UNL     1     -14.030  -4.160  38.059  0.00  0.00    -0.253 OA
ENDROOT
TORSDOF 0
ENDMDL
MODEL 5
REMARK VINA RESULT:      -2.6     16.702     17.181
REMARK  Name = URE
REMARK  0 active torsions:
REMARK  status: ('A' for Active; 'I' for Inactive)
REMARK                            x       y       z     vdW  Elec       q    Type
REMARK                         _______ _______ _______ _____ _____    ______ ____
ROOT
ATOM      1  C   UNL     1     -26.459   6.539  45.668  0.00  0.00    +0.294 C 
ATOM      2  N   UNL     1     -27.271   6.092  46.646  0.00  0.00    -0.314 N 
ATOM      3  H   UNL     1     -27.173   5.187  46.981  0.00  0.00    +0.146 HD
ATOM      4  H   UNL     1     -27.953   6.675  47.014  0.00  0.00    +0.146 HD
ATOM      5  N   UNL     1     -25.511   5.730  45.156  0.00  0.00    -0.314 N 
ATOM      6  H   UNL     1     -25.412   4.826  45.493  0.00  0.00    +0.146 HD
ATOM      7  H   UNL     1     -24.927   6.052  44.452  0.00  0.00    +0.146 HD
ATOM      8  O   UNL     1     -26.581   7.672  45.248  0.00  0.00    -0.253 OA
ENDROOT
TORSDOF 0
ENDMDL
MODEL 6
REMARK VINA RESULT:      -2.6      2.323      2.323
REMARK  Name = URE
REMARK  0 active torsions:
REMARK  status: ('A' for Active; 'I' for Inactive)
REMARK                            x       y       z     vdW  Elec       q    Type
REMARK                         _______ _______ _______ _____ _____    ______ ____
ROOT
ATOM      1  C   UNL     1     -13.623  -3.240  37.771  0.00  0.00    +0.294 C 
ATOM      2  N   UNL     1     -13.335  -2.156  38.518  0.00  0.00    -0.314 N 
ATOM      3  H   UNL     1     -13.321  -1.277  38.110  0.00  0.00    +0.146 HD
ATOM      4  H   UNL     1     -13.143  -2.256  39.464  0.00  0.00    +0.146 HD
ATOM      5  N   UNL     1     -13.890  -3.103  36.458  0.00  0.00    -0.314 N 
ATOM      6  H   UNL     1     -13.878  -2.223  36.051  0.00  0.00    +0.146 HD
ATOM      7  H   UNL     1     -14.097  -3.884  35.921  0.00  0.00    +0.146 HD
ATOM      8  O   UNL     1     -13.641  -4.342  38.283  0.00  0.00    -0.253 OA
ENDROOT
TORSDOF 0
ENDMDL
MODEL 7
REMARK VINA RESULT:      -2.6     15.884     16.158
REMARK  Name = URE
REMARK  0 active torsions:
REMARK  status: ('A' for Active; 'I' for Inactive)
REMARK                            x       y       z     vdW  Elec       q    Type
REMARK                         _______ _______ _______ _____ _____    ______ ____
ROOT
ATOM      1  C   UNL     1     -28.326   2.532  44.874  0.00  0.00    +0.294 C 
ATOM      2  N   UNL     1     -28.774   3.719  45.327  0.00  0.00    -0.314 N 
ATOM      3  H   UNL     1     -28.930   3.848  46.276  0.00  0.00    +0.146 HD
ATOM      4  H   UNL     1     -28.942   4.444  44.706  0.00  0.00    +0.146 HD
ATOM      5  N   UNL     1     -28.093   1.524  45.737  0.00  0.00    -0.314 N 
ATOM      6  H   UNL     1     -28.246   1.654  46.686  0.00  0.00    +0.146 HD
ATOM      7  H   UNL     1     -27.770   0.670  45.410  0.00  0.00    +0.146 HD
ATOM      8  O   UNL     1     -28.131   2.371  43.686  0.00  0.00    -0.253 OA
ENDROOT
TORSDOF 0
ENDMDL
MODEL 8
REMARK VINA RESULT:      -2.6     14.962     15.056
REMARK  Name = URE
REMARK  0 active torsions:
REMARK  status: ('A' for Active; 'I' for Inactive)
REMARK                            x       y       z     vdW  Elec       q    Type
REMARK                         _______ _______ _______ _____ _____    ______ ____
ROOT
ATOM      1  C   UNL     1     -22.761   9.145  36.158  0.00  0.00    +0.294 C 
ATOM      2  N   UNL     1     -22.914   9.621  34.908  0.00  0.00    -0.314 N 
ATOM      3  H   UNL     1     -22.575  10.501  34.680  0.00  0.00    +0.146 HD
ATOM      4  H   UNL     1     -23.362   9.085  34.235  0.00  0.00    +0.146 HD
ATOM      5  N   UNL     1     -22.138   9.889  37.093  0.00  0.00    -0.314 N 
ATOM      6  H   UNL     1     -21.796  10.767  36.864  0.00  0.00    +0.146 HD
ATOM      7  H   UNL     1     -22.028   9.545  37.993  0.00  0.00    +0.146 HD
ATOM      8  O   UNL     1     -23.185   8.042  36.444  0.00  0.00    -0.253 OA
ENDROOT
TORSDOF 0
ENDMDL
MODEL 9
REMARK VINA RESULT:      -2.6     12.003     12.019
REMARK  Name = URE
REMARK  0 active torsions:
REMARK  status: ('A' for Active; 'I' for Inactive)
REMARK                            x       y       z     vdW  Elec       q    Type
REMARK                         _______ _______ _______ _____ _____    ______ ____
ROOT
ATOM      1  C   UNL     1     -11.670   5.481  31.239  0.00  0.00    +0.294 C 
ATOM      2  N   UNL     1     -10.558   5.803  31.927  0.00  0.00    -0.314 N 
ATOM      3  H   UNL     1     -10.563   5.778  32.896  0.00  0.00    +0.146 HD
ATOM      4  H   UNL     1      -9.751   6.061  31.453  0.00  0.00    +0.146 HD
ATOM      5  N   UNL     1     -12.790   5.124  31.897  0.00  0.00    -0.314 N 
ATOM      6  H   UNL     1     -12.794   5.095  32.866  0.00  0.00    +0.146 HD
ATOM      7  H   UNL     1     -13.591   4.892  31.401  0.00  0.00    +0.146 HD
ATOM      8  O   UNL     1     -11.664   5.514  30.024  0.00  0.00    -0.253 OA
ENDROOT
TORSDOF 0
ENDMDL
