MODEL 1
REMARK VINA RESULT:      -2.0      0.000      0.000
REMARK  Name = 2F2
REMARK  2 active torsions:
REMARK  status: ('A' for Active; 'I' for Inactive)
REMARK    1  A    between atoms: C_1  and  O_2
REMARK    2  A    between atoms: O_2  and  C_3
REMARK                            x       y       z     vdW  Elec       q    Type
REMARK                         _______ _______ _______ _____ _____    ______ ____
ROOT
ATOM      1  C   UNL     1      -4.673  31.738  39.905  0.00  0.00    +0.193 C 
ATOM      2  O   UNL     1      -3.962  31.404  41.099  0.00  0.00    -0.386 OA
ATOM      3  C   UNL     1      -3.267  30.156  41.032  0.00  0.00    +0.193 C 
ENDROOT
TORSDOF 0
ENDMDL
MODEL 2
REMARK VINA RESULT:      -2.0      0.420      1.940
REMARK  Name = 2F2
REMARK  2 active torsions:
REMARK  status: ('A' for Active; 'I' for Inactive)
REMARK    1  A    between atoms: C_1  and  O_2
REMARK    2  A    between atoms: O_2  and  C_3
REMARK                            x       y       z     vdW  Elec       q    Type
REMARK                         _______ _______ _______ _____ _____    ______ ____
ROOT
ATOM      1  C   UNL     1      -3.577  30.171  40.952  0.00  0.00    +0.193 C 
ATOM      2  O   UNL     1      -3.919  31.558  41.013  0.00  0.00    -0.386 OA
ATOM      3  C   UNL     1      -4.220  32.140  39.743  0.00  0.00    +0.193 C 
ENDROOT
TORSDOF 0
ENDMDL
MODEL 3
REMARK VINA RESULT:      -1.8      9.662      9.993
REMARK  Name = 2F2
REMARK  2 active torsions:
REMARK  status: ('A' for Active; 'I' for Inactive)
REMARK    1  A    between atoms: C_1  and  O_2
REMARK    2  A    between atoms: O_2  and  C_3
REMARK                            x       y       z     vdW  Elec       q    Type
REMARK                         _______ _______ _______ _____ _____    ______ ____
ROOT
ATOM      1  C   UNL     1       4.080  24.436  38.711  0.00  0.00    +0.193 C 
ATOM      2  O   UNL     1       2.998  24.594  39.632  0.00  0.00    -0.386 OA
ATOM      3  C   UNL     1       3.403  24.988  40.945  0.00  0.00    +0.193 C 
ENDROOT
TORSDOF 0
ENDMDL
MODEL 4
REMARK VINA RESULT:      -1.8      2.094      2.382
REMARK  Name = 2F2
REMARK  2 active torsions:
REMARK  status: ('A' for Active; 'I' for Inactive)
REMARK    1  A    between atoms: C_1  and  O_2
REMARK    2  A    between atoms: O_2  and  C_3
REMARK                            x       y       z     vdW  Elec       q    Type
REMARK                         _______ _______ _______ _____ _____    ______ ____
ROOT
ATOM      1  C   UNL     1      -3.688  30.298  40.922  0.00  0.00    +0.193 C 
ATOM      2  O   UNL     1      -3.505  29.133  40.115  0.00  0.00    -0.386 OA
ATOM      3  C   UNL     1      -4.368  29.071  38.977  0.00  0.00    +0.193 C 
ENDROOT
TORSDOF 0
ENDMDL
MODEL 5
REMARK VINA RESULT:      -1.6     11.078     11.365
REMARK  Name = 2F2
REMARK  2 active torsions:
REMARK  status: ('A' for Active; 'I' for Inactive)
REMARK    1  A    between atoms: C_1  and  O_2
REMARK    2  A    between atoms: O_2  and  C_3
REMARK                            x       y       z     vdW  Elec       q    Type
REMARK                         _______ _______ _______ _____ _____    ______ ____
ROOT
ATOM      1  C   UNL     1      -7.757  30.003  52.422  0.00  0.00    +0.193 C 
ATOM      2  O   UNL     1      -6.912  29.751  51.296  0.00  0.00    -0.386 OA
ATOM      3  C   UNL     1      -6.471  30.933  50.624  0.00  0.00    +0.193 C 
ENDROOT
TORSDOF 0
ENDMDL
MODEL 6
REMARK VINA RESULT:      -1.6     11.196     11.423
REMARK  Name = 2F2
REMARK  2 active torsions:
REMARK  status: ('A' for Active; 'I' for Inactive)
REMARK    1  A    between atoms: C_1  and  O_2
REMARK    2  A    between atoms: O_2  and  C_3
REMARK                            x       y       z     vdW  Elec       q    Type
REMARK                         _______ _______ _______ _____ _____    ______ ____
ROOT
ATOM      1  C   UNL     1      -6.676  31.065  50.839  0.00  0.00    +0.193 C 
ATOM      2  O   UNL     1      -7.002  29.747  51.286  0.00  0.00    -0.386 OA
ATOM      3  C   UNL     1      -7.792  29.715  52.477  0.00  0.00    +0.193 C 
ENDROOT
TORSDOF 0
ENDMDL
MODEL 7
REMARK VINA RESULT:      -1.6     12.012     12.396
REMARK  Name = 2F2
REMARK  2 active torsions:
REMARK  status: ('A' for Active; 'I' for Inactive)
REMARK    1  A    between atoms: C_1  and  O_2
REMARK    2  A    between atoms: O_2  and  C_3
REMARK                            x       y       z     vdW  Elec       q    Type
REMARK                         _______ _______ _______ _____ _____    ______ ____
ROOT
ATOM      1  C   UNL     1       6.355  26.256  33.461  0.00  0.00    +0.193 C 
ATOM      2  O   UNL     1       5.125  26.858  33.873  0.00  0.00    -0.386 OA
ATOM      3  C   UNL     1       4.530  26.240  35.016  0.00  0.00    +0.193 C 
ENDROOT
TORSDOF 0
ENDMDL
MODEL 8
REMARK VINA RESULT:      -1.5     13.747     13.747
REMARK  Name = 2F2
REMARK  2 active torsions:
REMARK  status: ('A' for Active; 'I' for Inactive)
REMARK    1  A    between atoms: C_1  and  O_2
REMARK    2  A    between atoms: O_2  and  C_3
REMARK                            x       y       z     vdW  Elec       q    Type
REMARK                         _______ _______ _______ _____ _____    ______ ____
ROOT
ATOM      1  C   UNL     1       7.878  28.393  33.724  0.00  0.00    +0.193 C 
ATOM      2  O   UNL     1       6.696  27.591  33.784  0.00  0.00    -0.386 OA
ATOM      3  C   UNL     1       6.846  26.290  33.210  0.00  0.00    +0.193 C 
ENDROOT
TORSDOF 0
ENDMDL
MODEL 9
REMARK VINA RESULT:      -1.5     14.242     14.562
REMARK  Name = 2F2
REMARK  2 active torsions:
REMARK  status: ('A' for Active; 'I' for Inactive)
REMARK    1  A    between atoms: C_1  and  O_2
REMARK    2  A    between atoms: O_2  and  C_3
REMARK                            x       y       z     vdW  Elec       q    Type
REMARK                         _______ _______ _______ _____ _____    ______ ____
ROOT
ATOM      1  C   UNL     1       8.616  30.281  36.107  0.00  0.00    +0.193 C 
ATOM      2  O   UNL     1      10.007  30.349  35.785  0.00  0.00    -0.386 OA
ATOM      3  C   UNL     1      10.660  31.524  36.271  0.00  0.00    +0.193 C 
ENDROOT
TORSDOF 0
ENDMDL
