MODEL 1
REMARK VINA RESULT:      -2.3      0.000      0.000
REMARK  Name = ACE
REMARK  1 active torsions:
REMARK  status: ('A' for Active; 'I' for Inactive)
REMARK    1  A    between atoms: C_1  and  C_3
REMARK                            x       y       z     vdW  Elec       q    Type
REMARK                         _______ _______ _______ _____ _____    ______ ____
ROOT
ATOM      1  C   UNL     1       3.805  24.669  39.632  0.00  0.00    +0.220 C 
ATOM      2  C   UNL     1       4.353  24.234  38.297  0.00  0.00    +0.082 C 
ATOM      3  O   UNL     1       2.612  24.686  39.818  0.00  0.00    -0.301 OA
ENDROOT
TORSDOF 0
ENDMDL
MODEL 2
REMARK VINA RESULT:      -2.3      9.938     10.204
REMARK  Name = ACE
REMARK  1 active torsions:
REMARK  status: ('A' for Active; 'I' for Inactive)
REMARK    1  A    between atoms: C_1  and  C_3
REMARK                            x       y       z     vdW  Elec       q    Type
REMARK                         _______ _______ _______ _____ _____    ______ ____
ROOT
ATOM      1  C   UNL     1      -4.041  30.215  40.879  0.00  0.00    +0.220 C 
ATOM      2  C   UNL     1      -5.388  29.612  40.574  0.00  0.00    +0.082 C 
ATOM      3  O   UNL     1      -3.971  31.286  41.433  0.00  0.00    -0.301 OA
ENDROOT
TORSDOF 0
ENDMDL
MODEL 3
REMARK VINA RESULT:      -2.1      9.369      9.713
REMARK  Name = ACE
REMARK  1 active torsions:
REMARK  status: ('A' for Active; 'I' for Inactive)
REMARK    1  A    between atoms: C_1  and  C_3
REMARK                            x       y       z     vdW  Elec       q    Type
REMARK                         _______ _______ _______ _____ _____    ______ ____
ROOT
ATOM      1  C   UNL     1      -3.517  30.154  40.678  0.00  0.00    +0.220 C 
ATOM      2  C   UNL     1      -4.810  30.924  40.593  0.00  0.00    +0.082 C 
ATOM      3  O   UNL     1      -2.623  30.552  41.385  0.00  0.00    -0.301 OA
ENDROOT
TORSDOF 0
ENDMDL
MODEL 4
REMARK VINA RESULT:      -2.0      8.725      8.787
REMARK  Name = ACE
REMARK  1 active torsions:
REMARK  status: ('A' for Active; 'I' for Inactive)
REMARK    1  A    between atoms: C_1  and  C_3
REMARK                            x       y       z     vdW  Elec       q    Type
REMARK                         _______ _______ _______ _____ _____    ______ ____
ROOT
ATOM      1  C   UNL     1       9.039  31.725  37.425  0.00  0.00    +0.220 C 
ATOM      2  C   UNL     1       8.763  30.647  36.408  0.00  0.00    +0.082 C 
ATOM      3  O   UNL     1       8.497  31.691  38.503  0.00  0.00    -0.301 OA
ENDROOT
TORSDOF 0
ENDMDL
MODEL 5
REMARK VINA RESULT:      -1.9      8.888      8.888
REMARK  Name = ACE
REMARK  1 active torsions:
REMARK  status: ('A' for Active; 'I' for Inactive)
REMARK    1  A    between atoms: C_1  and  C_3
REMARK                            x       y       z     vdW  Elec       q    Type
REMARK                         _______ _______ _______ _____ _____    ______ ____
ROOT
ATOM      1  C   UNL     1       9.146  26.717  33.332  0.00  0.00    +0.220 C 
ATOM      2  C   UNL     1       7.987  26.491  32.395  0.00  0.00    +0.082 C 
ATOM      3  O   UNL     1      10.228  27.018  32.890  0.00  0.00    -0.301 OA
ENDROOT
TORSDOF 0
ENDMDL
MODEL 6
REMARK VINA RESULT:      -1.8      9.019      9.077
REMARK  Name = ACE
REMARK  1 active torsions:
REMARK  status: ('A' for Active; 'I' for Inactive)
REMARK    1  A    between atoms: C_1  and  C_3
REMARK                            x       y       z     vdW  Elec       q    Type
REMARK                         _______ _______ _______ _____ _____    ______ ____
ROOT
ATOM      1  C   UNL     1      -4.126  29.600  39.695  0.00  0.00    +0.220 C 
ATOM      2  C   UNL     1      -3.510  30.235  40.916  0.00  0.00    +0.082 C 
ATOM      3  O   UNL     1      -3.733  28.525  39.312  0.00  0.00    -0.301 OA
ENDROOT
TORSDOF 0
ENDMDL
MODEL 7
REMARK VINA RESULT:      -1.7     12.300     12.341
REMARK  Name = ACE
REMARK  1 active torsions:
REMARK  status: ('A' for Active; 'I' for Inactive)
REMARK    1  A    between atoms: C_1  and  C_3
REMARK                            x       y       z     vdW  Elec       q    Type
REMARK                         _______ _______ _______ _____ _____    ______ ____
ROOT
ATOM      1  C   UNL     1      10.433  34.583  37.527  0.00  0.00    +0.220 C 
ATOM      2  C   UNL     1       9.225  34.122  38.302  0.00  0.00    +0.082 C 
ATOM      3  O   UNL     1      11.328  35.164  38.093  0.00  0.00    -0.301 OA
ENDROOT
TORSDOF 0
ENDMDL
MODEL 8
REMARK VINA RESULT:      -1.7     14.530     14.653
REMARK  Name = ACE
REMARK  1 active torsions:
REMARK  status: ('A' for Active; 'I' for Inactive)
REMARK    1  A    between atoms: C_1  and  C_3
REMARK                            x       y       z     vdW  Elec       q    Type
REMARK                         _______ _______ _______ _____ _____    ______ ____
ROOT
ATOM      1  C   UNL     1      -5.001  19.660  28.962  0.00  0.00    +0.220 C 
ATOM      2  C   UNL     1      -5.467  20.950  28.338  0.00  0.00    +0.082 C 
ATOM      3  O   UNL     1      -4.632  18.749  28.261  0.00  0.00    -0.301 OA
ENDROOT
TORSDOF 0
ENDMDL
MODEL 9
REMARK VINA RESULT:      -1.7      6.472      6.832
REMARK  Name = ACE
REMARK  1 active torsions:
REMARK  status: ('A' for Active; 'I' for Inactive)
REMARK    1  A    between atoms: C_1  and  C_3
REMARK                            x       y       z     vdW  Elec       q    Type
REMARK                         _______ _______ _______ _____ _____    ______ ____
ROOT
ATOM      1  C   UNL     1       6.553  26.750  33.850  0.00  0.00    +0.220 C 
ATOM      2  C   UNL     1       7.464  26.407  32.699  0.00  0.00    +0.082 C 
ATOM      3  O   UNL     1       5.356  26.706  33.706  0.00  0.00    -0.301 OA
ENDROOT
TORSDOF 0
ENDMDL
