MODEL 1
REMARK VINA RESULT:      -3.1      0.000      0.000
REMARK  Name = ACM
REMARK  1 active torsions:
REMARK  status: ('A' for Active; 'I' for Inactive)
REMARK    1  A    between atoms: C_1  and  C_4
REMARK                            x       y       z     vdW  Elec       q    Type
REMARK                         _______ _______ _______ _____ _____    ______ ____
ROOT
ATOM      1  C   UNL     1       3.403  24.912  40.614  0.00  0.00    +0.207 C 
ATOM      2  C   UNL     1       4.819  24.400  40.606  0.00  0.00    +0.109 C 
ATOM      3  N   UNL     1       2.969  25.681  41.631  0.00  0.00    -0.330 N 
ATOM      4  H   UNL     1       3.570  25.905  42.359  0.00  0.00    +0.145 HD
ATOM      5  H   UNL     1       2.057  26.010  41.636  0.00  0.00    +0.145 HD
ATOM      6  O   UNL     1       2.652  24.631  39.703  0.00  0.00    -0.276 OA
ENDROOT
TORSDOF 0
ENDMDL
MODEL 2
REMARK VINA RESULT:      -2.8      9.364      9.595
REMARK  Name = ACM
REMARK  1 active torsions:
REMARK  status: ('A' for Active; 'I' for Inactive)
REMARK    1  A    between atoms: C_1  and  C_4
REMARK                            x       y       z     vdW  Elec       q    Type
REMARK                         _______ _______ _______ _____ _____    ______ ____
ROOT
ATOM      1  C   UNL     1      -4.163  30.303  40.800  0.00  0.00    +0.207 C 
ATOM      2  C   UNL     1      -5.480  29.598  40.611  0.00  0.00    +0.109 C 
ATOM      3  N   UNL     1      -3.061  29.854  40.167  0.00  0.00    -0.330 N 
ATOM      4  H   UNL     1      -3.117  29.077  39.589  0.00  0.00    +0.145 HD
ATOM      5  H   UNL     1      -2.213  30.308  40.288  0.00  0.00    +0.145 HD
ATOM      6  O   UNL     1      -4.093  31.274  41.523  0.00  0.00    -0.276 OA
ENDROOT
TORSDOF 0
ENDMDL
MODEL 3
REMARK VINA RESULT:      -2.6      2.300      2.302
REMARK  Name = ACM
REMARK  1 active torsions:
REMARK  status: ('A' for Active; 'I' for Inactive)
REMARK    1  A    between atoms: C_1  and  C_4
REMARK                            x       y       z     vdW  Elec       q    Type
REMARK                         _______ _______ _______ _____ _____    ______ ____
ROOT
ATOM      1  C   UNL     1       4.084  24.561  39.202  0.00  0.00    +0.207 C 
ATOM      2  C   UNL     1       4.518  25.377  38.014  0.00  0.00    +0.109 C 
ATOM      3  N   UNL     1       4.977  23.791  39.854  0.00  0.00    -0.330 N 
ATOM      4  H   UNL     1       5.899  23.762  39.557  0.00  0.00    +0.145 HD
ATOM      5  H   UNL     1       4.696  23.266  40.620  0.00  0.00    +0.145 HD
ATOM      6  O   UNL     1       2.930  24.598  39.573  0.00  0.00    -0.276 OA
ENDROOT
TORSDOF 0
ENDMDL
MODEL 4
REMARK VINA RESULT:      -2.6      9.932     10.070
REMARK  Name = ACM
REMARK  1 active torsions:
REMARK  status: ('A' for Active; 'I' for Inactive)
REMARK    1  A    between atoms: C_1  and  C_4
REMARK                            x       y       z     vdW  Elec       q    Type
REMARK                         _______ _______ _______ _____ _____    ______ ____
ROOT
ATOM      1  C   UNL     1       8.837  27.074  32.668  0.00  0.00    +0.207 C 
ATOM      2  C   UNL     1       8.055  28.201  33.288  0.00  0.00    +0.109 C 
ATOM      3  N   UNL     1       8.249  26.256  31.774  0.00  0.00    -0.330 N 
ATOM      4  H   UNL     1       7.321  26.395  31.529  0.00  0.00    +0.145 HD
ATOM      5  H   UNL     1       8.753  25.530  31.374  0.00  0.00    +0.145 HD
ATOM      6  O   UNL     1       9.998  26.902  32.975  0.00  0.00    -0.276 OA
ENDROOT
TORSDOF 0
ENDMDL
MODEL 5
REMARK VINA RESULT:      -2.4      9.111      9.185
REMARK  Name = ACM
REMARK  1 active torsions:
REMARK  status: ('A' for Active; 'I' for Inactive)
REMARK    1  A    between atoms: C_1  and  C_4
REMARK                            x       y       z     vdW  Elec       q    Type
REMARK                         _______ _______ _______ _____ _____    ______ ____
ROOT
ATOM      1  C   UNL     1       7.767  26.462  32.852  0.00  0.00    +0.207 C 
ATOM      2  C   UNL     1       8.816  26.434  33.932  0.00  0.00    +0.109 C 
ATOM      3  N   UNL     1       8.098  26.155  31.582  0.00  0.00    -0.330 N 
ATOM      4  H   UNL     1       9.012  25.916  31.364  0.00  0.00    +0.145 HD
ATOM      5  H   UNL     1       7.421  26.173  30.887  0.00  0.00    +0.145 HD
ATOM      6  O   UNL     1       6.624  26.761  33.126  0.00  0.00    -0.276 OA
ENDROOT
TORSDOF 0
ENDMDL
MODEL 6
REMARK VINA RESULT:      -2.4      2.334      2.455
REMARK  Name = ACM
REMARK  1 active torsions:
REMARK  status: ('A' for Active; 'I' for Inactive)
REMARK    1  A    between atoms: C_1  and  C_4
REMARK                            x       y       z     vdW  Elec       q    Type
REMARK                         _______ _______ _______ _____ _____    ______ ____
ROOT
ATOM      1  C   UNL     1       4.795  24.267  42.260  0.00  0.00    +0.207 C 
ATOM      2  C   UNL     1       6.020  24.798  42.957  0.00  0.00    +0.109 C 
ATOM      3  N   UNL     1       3.616  24.906  42.388  0.00  0.00    -0.330 N 
ATOM      4  H   UNL     1       3.556  25.708  42.930  0.00  0.00    +0.145 HD
ATOM      5  H   UNL     1       2.827  24.564  41.939  0.00  0.00    +0.145 HD
ATOM      6  O   UNL     1       4.871  23.264  41.582  0.00  0.00    -0.276 OA
ENDROOT
TORSDOF 0
ENDMDL
MODEL 7
REMARK VINA RESULT:      -2.4      6.153      6.243
REMARK  Name = ACM
REMARK  1 active torsions:
REMARK  status: ('A' for Active; 'I' for Inactive)
REMARK    1  A    between atoms: C_1  and  C_4
REMARK                            x       y       z     vdW  Elec       q    Type
REMARK                         _______ _______ _______ _____ _____    ______ ____
ROOT
ATOM      1  C   UNL     1       8.393  27.694  42.486  0.00  0.00    +0.207 C 
ATOM      2  C   UNL     1       7.787  26.844  43.570  0.00  0.00    +0.109 C 
ATOM      3  N   UNL     1       7.820  27.743  41.267  0.00  0.00    -0.330 N 
ATOM      4  H   UNL     1       7.016  27.230  41.090  0.00  0.00    +0.145 HD
ATOM      5  H   UNL     1       8.211  28.291  40.569  0.00  0.00    +0.145 HD
ATOM      6  O   UNL     1       9.399  28.335  42.709  0.00  0.00    -0.276 OA
ENDROOT
TORSDOF 0
ENDMDL
MODEL 8
REMARK VINA RESULT:      -2.3      8.793      8.854
REMARK  Name = ACM
REMARK  1 active torsions:
REMARK  status: ('A' for Active; 'I' for Inactive)
REMARK    1  A    between atoms: C_1  and  C_4
REMARK                            x       y       z     vdW  Elec       q    Type
REMARK                         _______ _______ _______ _____ _____    ______ ____
ROOT
ATOM      1  C   UNL     1      -3.195  30.539  40.033  0.00  0.00    +0.207 C 
ATOM      2  C   UNL     1      -2.628  30.477  38.639  0.00  0.00    +0.109 C 
ATOM      3  N   UNL     1      -3.811  31.658  40.462  0.00  0.00    -0.330 N 
ATOM      4  H   UNL     1      -3.889  32.424  39.872  0.00  0.00    +0.145 HD
ATOM      5  H   UNL     1      -4.176  31.698  41.360  0.00  0.00    +0.145 HD
ATOM      6  O   UNL     1      -3.096  29.581  40.770  0.00  0.00    -0.276 OA
ENDROOT
TORSDOF 0
ENDMDL
MODEL 9
REMARK VINA RESULT:      -2.3      8.192      8.274
REMARK  Name = ACM
REMARK  1 active torsions:
REMARK  status: ('A' for Active; 'I' for Inactive)
REMARK    1  A    between atoms: C_1  and  C_4
REMARK                            x       y       z     vdW  Elec       q    Type
REMARK                         _______ _______ _______ _____ _____    ______ ____
ROOT
ATOM      1  C   UNL     1       6.943  27.354  33.665  0.00  0.00    +0.207 C 
ATOM      2  C   UNL     1       7.836  26.491  32.813  0.00  0.00    +0.109 C 
ATOM      3  N   UNL     1       7.395  28.532  34.137  0.00  0.00    -0.330 N 
ATOM      4  H   UNL     1       8.296  28.824  33.928  0.00  0.00    +0.145 HD
ATOM      5  H   UNL     1       6.819  29.088  34.685  0.00  0.00    +0.145 HD
ATOM      6  O   UNL     1       5.817  26.988  33.925  0.00  0.00    -0.276 OA
ENDROOT
TORSDOF 0
ENDMDL
