MODEL 1
REMARK VINA RESULT:      -2.7      0.000      0.000
REMARK  Name = ACN
REMARK  2 active torsions:
REMARK  status: ('A' for Active; 'I' for Inactive)
REMARK    1  A    between atoms: C_1  and  C_3
REMARK    2  A    between atoms: C_1  and  C_4
REMARK                            x       y       z     vdW  Elec       q    Type
REMARK                         _______ _______ _______ _____ _____    ______ ____
ROOT
ATOM      1  C   UNL     1      -4.676  30.876  40.603  0.00  0.00    +0.127 C 
ATOM      2  C   UNL     1      -4.729  31.811  39.423  0.00  0.00    +0.085 C 
ATOM      3  C   UNL     1      -5.534  29.637  40.623  0.00  0.00    +0.085 C 
ATOM      4  O   UNL     1      -3.949  31.122  41.536  0.00  0.00    -0.298 OA
ENDROOT
TORSDOF 0
ENDMDL
MODEL 2
REMARK VINA RESULT:      -2.7      0.003      1.846
REMARK  Name = ACN
REMARK  2 active torsions:
REMARK  status: ('A' for Active; 'I' for Inactive)
REMARK    1  A    between atoms: C_1  and  C_3
REMARK    2  A    between atoms: C_1  and  C_4
REMARK                            x       y       z     vdW  Elec       q    Type
REMARK                         _______ _______ _______ _____ _____    ______ ____
ROOT
ATOM      1  C   UNL     1      -4.676  30.878  40.604  0.00  0.00    +0.127 C 
ATOM      2  C   UNL     1      -5.531  29.637  40.622  0.00  0.00    +0.085 C 
ATOM      3  C   UNL     1      -4.727  31.812  39.423  0.00  0.00    +0.085 C 
ATOM      4  O   UNL     1      -3.946  31.121  41.535  0.00  0.00    -0.298 OA
ENDROOT
TORSDOF 0
ENDMDL
MODEL 3
REMARK VINA RESULT:      -2.6     10.631     10.790
REMARK  Name = ACN
REMARK  2 active torsions:
REMARK  status: ('A' for Active; 'I' for Inactive)
REMARK    1  A    between atoms: C_1  and  C_3
REMARK    2  A    between atoms: C_1  and  C_4
REMARK                            x       y       z     vdW  Elec       q    Type
REMARK                         _______ _______ _______ _____ _____    ______ ____
ROOT
ATOM      1  C   UNL     1       3.778  24.629  39.686  0.00  0.00    +0.127 C 
ATOM      2  C   UNL     1       4.359  24.288  38.338  0.00  0.00    +0.085 C 
ATOM      3  C   UNL     1       4.689  24.865  40.862  0.00  0.00    +0.085 C 
ATOM      4  O   UNL     1       2.580  24.708  39.824  0.00  0.00    -0.298 OA
ENDROOT
TORSDOF 0
ENDMDL
MODEL 4
REMARK VINA RESULT:      -2.5     12.074     12.498
REMARK  Name = ACN
REMARK  2 active torsions:
REMARK  status: ('A' for Active; 'I' for Inactive)
REMARK    1  A    between atoms: C_1  and  C_3
REMARK    2  A    between atoms: C_1  and  C_4
REMARK                            x       y       z     vdW  Elec       q    Type
REMARK                         _______ _______ _______ _____ _____    ______ ____
ROOT
ATOM      1  C   UNL     1       3.767  26.164  47.970  0.00  0.00    +0.127 C 
ATOM      2  C   UNL     1       3.542  24.754  48.451  0.00  0.00    +0.085 C 
ATOM      3  C   UNL     1       5.164  26.725  47.905  0.00  0.00    +0.085 C 
ATOM      4  O   UNL     1       2.827  26.848  47.641  0.00  0.00    -0.298 OA
ENDROOT
TORSDOF 0
ENDMDL
MODEL 5
REMARK VINA RESULT:      -2.4     13.956     14.284
REMARK  Name = ACN
REMARK  2 active torsions:
REMARK  status: ('A' for Active; 'I' for Inactive)
REMARK    1  A    between atoms: C_1  and  C_3
REMARK    2  A    between atoms: C_1  and  C_4
REMARK                            x       y       z     vdW  Elec       q    Type
REMARK                         _______ _______ _______ _____ _____    ______ ____
ROOT
ATOM      1  C   UNL     1       9.045  32.368  37.874  0.00  0.00    +0.127 C 
ATOM      2  C   UNL     1       9.646  31.603  36.724  0.00  0.00    +0.085 C 
ATOM      3  C   UNL     1       9.236  33.859  37.970  0.00  0.00    +0.085 C 
ATOM      4  O   UNL     1       8.413  31.785  38.722  0.00  0.00    -0.298 OA
ENDROOT
TORSDOF 0
ENDMDL
MODEL 6
REMARK VINA RESULT:      -2.4     13.957     14.172
REMARK  Name = ACN
REMARK  2 active torsions:
REMARK  status: ('A' for Active; 'I' for Inactive)
REMARK    1  A    between atoms: C_1  and  C_3
REMARK    2  A    between atoms: C_1  and  C_4
REMARK                            x       y       z     vdW  Elec       q    Type
REMARK                         _______ _______ _______ _____ _____    ______ ____
ROOT
ATOM      1  C   UNL     1       8.977  31.728  37.354  0.00  0.00    +0.127 C 
ATOM      2  C   UNL     1       9.718  32.964  36.912  0.00  0.00    +0.085 C 
ATOM      3  C   UNL     1       8.795  30.577  36.399  0.00  0.00    +0.085 C 
ATOM      4  O   UNL     1       8.524  31.663  38.472  0.00  0.00    -0.298 OA
ENDROOT
TORSDOF 0
ENDMDL
MODEL 7
REMARK VINA RESULT:      -2.3     15.135     15.460
REMARK  Name = ACN
REMARK  2 active torsions:
REMARK  status: ('A' for Active; 'I' for Inactive)
REMARK    1  A    between atoms: C_1  and  C_3
REMARK    2  A    between atoms: C_1  and  C_4
REMARK                            x       y       z     vdW  Elec       q    Type
REMARK                         _______ _______ _______ _____ _____    ______ ____
ROOT
ATOM      1  C   UNL     1      10.042  31.117  36.304  0.00  0.00    +0.127 C 
ATOM      2  C   UNL     1      11.309  31.901  36.079  0.00  0.00    +0.085 C 
ATOM      3  C   UNL     1       9.045  31.575  37.336  0.00  0.00    +0.085 C 
ATOM      4  O   UNL     1       9.828  30.118  35.659  0.00  0.00    -0.298 OA
ENDROOT
TORSDOF 0
ENDMDL
MODEL 8
REMARK VINA RESULT:      -2.2      2.026      2.141
REMARK  Name = ACN
REMARK  2 active torsions:
REMARK  status: ('A' for Active; 'I' for Inactive)
REMARK    1  A    between atoms: C_1  and  C_3
REMARK    2  A    between atoms: C_1  and  C_4
REMARK                            x       y       z     vdW  Elec       q    Type
REMARK                         _______ _______ _______ _____ _____    ______ ____
ROOT
ATOM      1  C   UNL     1      -3.583  30.061  40.014  0.00  0.00    +0.127 C 
ATOM      2  C   UNL     1      -2.525  30.929  39.384  0.00  0.00    +0.085 C 
ATOM      3  C   UNL     1      -4.547  30.651  41.010  0.00  0.00    +0.085 C 
ATOM      4  O   UNL     1      -3.655  28.891  39.725  0.00  0.00    -0.298 OA
ENDROOT
TORSDOF 0
ENDMDL
MODEL 9
REMARK VINA RESULT:      -2.2     13.876     14.086
REMARK  Name = ACN
REMARK  2 active torsions:
REMARK  status: ('A' for Active; 'I' for Inactive)
REMARK    1  A    between atoms: C_1  and  C_3
REMARK    2  A    between atoms: C_1  and  C_4
REMARK                            x       y       z     vdW  Elec       q    Type
REMARK                         _______ _______ _______ _____ _____    ______ ____
ROOT
ATOM      1  C   UNL     1       6.327  26.098  33.704  0.00  0.00    +0.127 C 
ATOM      2  C   UNL     1       6.449  24.884  34.588  0.00  0.00    +0.085 C 
ATOM      3  C   UNL     1       7.428  26.436  32.732  0.00  0.00    +0.085 C 
ATOM      4  O   UNL     1       5.349  26.803  33.777  0.00  0.00    -0.298 OA
ENDROOT
TORSDOF 0
ENDMDL
