MODEL 1
REMARK VINA RESULT:      -3.5      0.000      0.000
REMARK  Name = BNZ
REMARK  0 active torsions:
REMARK  status: ('A' for Active; 'I' for Inactive)
REMARK                            x       y       z     vdW  Elec       q    Type
REMARK                         _______ _______ _______ _____ _____    ______ ____
ROOT
ATOM      1  C   UNL     1       0.416  25.289  28.722  0.00  0.00    +0.000 A 
ATOM      2  C   UNL     1      -0.855  24.982  28.276  0.00  0.00    +0.000 A 
ATOM      3  C   UNL     1      -1.759  24.373  29.127  0.00  0.00    +0.000 A 
ATOM      4  C   UNL     1      -1.388  24.068  30.423  0.00  0.00    +0.000 A 
ATOM      5  C   UNL     1      -0.117  24.374  30.869  0.00  0.00    +0.000 A 
ATOM      6  C   UNL     1       0.786  24.985  30.019  0.00  0.00    +0.000 A 
ENDROOT
TORSDOF 0
ENDMDL
MODEL 2
REMARK VINA RESULT:      -3.5      0.057      1.955
REMARK  Name = BNZ
REMARK  0 active torsions:
REMARK  status: ('A' for Active; 'I' for Inactive)
REMARK                            x       y       z     vdW  Elec       q    Type
REMARK                         _______ _______ _______ _____ _____    ______ ____
ROOT
ATOM      1  C   UNL     1      -1.753  24.341  29.198  0.00  0.00    +0.000 A 
ATOM      2  C   UNL     1      -0.883  24.962  28.323  0.00  0.00    +0.000 A 
ATOM      3  C   UNL     1       0.396  25.288  28.735  0.00  0.00    +0.000 A 
ATOM      4  C   UNL     1       0.802  24.997  30.024  0.00  0.00    +0.000 A 
ATOM      5  C   UNL     1      -0.069  24.377  30.899  0.00  0.00    +0.000 A 
ATOM      6  C   UNL     1      -1.348  24.048  30.486  0.00  0.00    +0.000 A 
ENDROOT
TORSDOF 0
ENDMDL
MODEL 3
REMARK VINA RESULT:      -3.2     14.230     15.213
REMARK  Name = BNZ
REMARK  0 active torsions:
REMARK  status: ('A' for Active; 'I' for Inactive)
REMARK                            x       y       z     vdW  Elec       q    Type
REMARK                         _______ _______ _______ _____ _____    ______ ____
ROOT
ATOM      1  C   UNL     1       9.970  33.881  37.311  0.00  0.00    +0.000 A 
ATOM      2  C   UNL     1      11.016  33.532  36.479  0.00  0.00    +0.000 A 
ATOM      3  C   UNL     1      11.141  32.229  36.033  0.00  0.00    +0.000 A 
ATOM      4  C   UNL     1      10.220  31.275  36.423  0.00  0.00    +0.000 A 
ATOM      5  C   UNL     1       9.174  31.623  37.256  0.00  0.00    +0.000 A 
ATOM      6  C   UNL     1       9.049  32.927  37.700  0.00  0.00    +0.000 A 
ENDROOT
TORSDOF 0
ENDMDL
MODEL 4
REMARK VINA RESULT:      -3.2     14.178     15.194
REMARK  Name = BNZ
REMARK  0 active torsions:
REMARK  status: ('A' for Active; 'I' for Inactive)
REMARK                            x       y       z     vdW  Elec       q    Type
REMARK                         _______ _______ _______ _____ _____    ______ ____
ROOT
ATOM      1  C   UNL     1      10.574  31.689  36.193  0.00  0.00    +0.000 A 
ATOM      2  C   UNL     1       9.491  31.359  36.984  0.00  0.00    +0.000 A 
ATOM      3  C   UNL     1       8.895  32.323  37.777  0.00  0.00    +0.000 A 
ATOM      4  C   UNL     1       9.385  33.615  37.779  0.00  0.00    +0.000 A 
ATOM      5  C   UNL     1      10.468  33.945  36.988  0.00  0.00    +0.000 A 
ATOM      6  C   UNL     1      11.064  32.982  36.194  0.00  0.00    +0.000 A 
ENDROOT
TORSDOF 0
ENDMDL
MODEL 5
REMARK VINA RESULT:      -3.2      8.029      8.427
REMARK  Name = BNZ
REMARK  0 active torsions:
REMARK  status: ('A' for Active; 'I' for Inactive)
REMARK                            x       y       z     vdW  Elec       q    Type
REMARK                         _______ _______ _______ _____ _____    ______ ____
ROOT
ATOM      1  C   UNL     1       5.996  24.585  35.143  0.00  0.00    +0.000 A 
ATOM      2  C   UNL     1       4.730  24.549  35.694  0.00  0.00    +0.000 A 
ATOM      3  C   UNL     1       4.097  23.336  35.893  0.00  0.00    +0.000 A 
ATOM      4  C   UNL     1       4.730  22.160  35.537  0.00  0.00    +0.000 A 
ATOM      5  C   UNL     1       5.996  22.196  34.985  0.00  0.00    +0.000 A 
ATOM      6  C   UNL     1       6.630  23.409  34.788  0.00  0.00    +0.000 A 
ENDROOT
TORSDOF 0
ENDMDL
MODEL 6
REMARK VINA RESULT:      -3.2      8.023      8.573
REMARK  Name = BNZ
REMARK  0 active torsions:
REMARK  status: ('A' for Active; 'I' for Inactive)
REMARK                            x       y       z     vdW  Elec       q    Type
REMARK                         _______ _______ _______ _____ _____    ______ ____
ROOT
ATOM      1  C   UNL     1       5.986  22.192  35.003  0.00  0.00    +0.000 A 
ATOM      2  C   UNL     1       6.633  23.394  34.790  0.00  0.00    +0.000 A 
ATOM      3  C   UNL     1       6.014  24.583  35.129  0.00  0.00    +0.000 A 
ATOM      4  C   UNL     1       4.745  24.568  35.678  0.00  0.00    +0.000 A 
ATOM      5  C   UNL     1       4.097  23.367  35.890  0.00  0.00    +0.000 A 
ATOM      6  C   UNL     1       4.718  22.177  35.553  0.00  0.00    +0.000 A 
ENDROOT
TORSDOF 0
ENDMDL
MODEL 7
REMARK VINA RESULT:      -3.0      2.080      3.155
REMARK  Name = BNZ
REMARK  0 active torsions:
REMARK  status: ('A' for Active; 'I' for Inactive)
REMARK                            x       y       z     vdW  Elec       q    Type
REMARK                         _______ _______ _______ _____ _____    ______ ____
ROOT
ATOM      1  C   UNL     1      -0.490  25.784  33.104  0.00  0.00    +0.000 A 
ATOM      2  C   UNL     1      -1.731  25.175  33.098  0.00  0.00    +0.000 A 
ATOM      3  C   UNL     1      -2.013  24.190  32.169  0.00  0.00    +0.000 A 
ATOM      4  C   UNL     1      -1.055  23.818  31.244  0.00  0.00    +0.000 A 
ATOM      5  C   UNL     1       0.185  24.428  31.250  0.00  0.00    +0.000 A 
ATOM      6  C   UNL     1       0.468  25.411  32.180  0.00  0.00    +0.000 A 
ENDROOT
TORSDOF 0
ENDMDL
MODEL 8
REMARK VINA RESULT:      -2.9      7.725      8.598
REMARK  Name = BNZ
REMARK  0 active torsions:
REMARK  status: ('A' for Active; 'I' for Inactive)
REMARK                            x       y       z     vdW  Elec       q    Type
REMARK                         _______ _______ _______ _____ _____    ______ ____
ROOT
ATOM      1  C   UNL     1       4.794  24.902  35.526  0.00  0.00    +0.000 A 
ATOM      2  C   UNL     1       5.876  24.052  35.401  0.00  0.00    +0.000 A 
ATOM      3  C   UNL     1       6.950  24.412  34.609  0.00  0.00    +0.000 A 
ATOM      4  C   UNL     1       6.940  25.622  33.940  0.00  0.00    +0.000 A 
ATOM      5  C   UNL     1       5.858  26.472  34.065  0.00  0.00    +0.000 A 
ATOM      6  C   UNL     1       4.784  26.112  34.858  0.00  0.00    +0.000 A 
ENDROOT
TORSDOF 0
ENDMDL
MODEL 9
REMARK VINA RESULT:      -2.9     12.070     12.654
REMARK  Name = BNZ
REMARK  0 active torsions:
REMARK  status: ('A' for Active; 'I' for Inactive)
REMARK                            x       y       z     vdW  Elec       q    Type
REMARK                         _______ _______ _______ _____ _____    ______ ____
ROOT
ATOM      1  C   UNL     1      -3.032  31.631  39.005  0.00  0.00    +0.000 A 
ATOM      2  C   UNL     1      -4.377  31.946  38.982  0.00  0.00    +0.000 A 
ATOM      3  C   UNL     1      -5.234  31.387  39.912  0.00  0.00    +0.000 A 
ATOM      4  C   UNL     1      -4.745  30.510  40.862  0.00  0.00    +0.000 A 
ATOM      5  C   UNL     1      -3.400  30.194  40.885  0.00  0.00    +0.000 A 
ATOM      6  C   UNL     1      -2.543  30.754  39.956  0.00  0.00    +0.000 A 
ENDROOT
TORSDOF 0
ENDMDL
