MODEL 1
REMARK VINA RESULT:      -2.3      0.000      0.000
REMARK  Name = CCN
REMARK  1 active torsions:
REMARK  status: ('A' for Active; 'I' for Inactive)
REMARK    1  A    between atoms: C_2  and  C_3
REMARK                            x       y       z     vdW  Elec       q    Type
REMARK                         _______ _______ _______ _____ _____    ______ ____
ROOT
ATOM      1  N   UNL     1      -2.549  30.229  41.345  0.00  0.00    -0.197 NA
ATOM      2  C   UNL     1      -3.635  30.243  41.014  0.00  0.00    +0.059 C 
ATOM      3  C   UNL     1      -5.043  30.260  40.584  0.00  0.00    +0.138 C 
ENDROOT
TORSDOF 0
ENDMDL
MODEL 2
REMARK VINA RESULT:      -1.9     15.150     15.439
REMARK  Name = CCN
REMARK  1 active torsions:
REMARK  status: ('A' for Active; 'I' for Inactive)
REMARK    1  A    between atoms: C_2  and  C_3
REMARK                            x       y       z     vdW  Elec       q    Type
REMARK                         _______ _______ _______ _____ _____    ______ ____
ROOT
ATOM      1  N   UNL     1      10.073  27.010  33.024  0.00  0.00    -0.197 NA
ATOM      2  C   UNL     1       8.983  26.758  32.829  0.00  0.00    +0.059 C 
ATOM      3  C   UNL     1       7.570  26.432  32.576  0.00  0.00    +0.138 C 
ENDROOT
TORSDOF 0
ENDMDL
MODEL 3
REMARK VINA RESULT:      -1.8      1.728      1.728
REMARK  Name = CCN
REMARK  1 active torsions:
REMARK  status: ('A' for Active; 'I' for Inactive)
REMARK    1  A    between atoms: C_2  and  C_3
REMARK                            x       y       z     vdW  Elec       q    Type
REMARK                         _______ _______ _______ _____ _____    ______ ____
ROOT
ATOM      1  N   UNL     1      -3.748  28.801  39.552  0.00  0.00    -0.197 NA
ATOM      2  C   UNL     1      -4.145  29.771  39.990  0.00  0.00    +0.059 C 
ATOM      3  C   UNL     1      -4.659  31.028  40.557  0.00  0.00    +0.138 C 
ENDROOT
TORSDOF 0
ENDMDL
MODEL 4
REMARK VINA RESULT:      -1.7     14.484     14.885
REMARK  Name = CCN
REMARK  1 active torsions:
REMARK  status: ('A' for Active; 'I' for Inactive)
REMARK    1  A    between atoms: C_2  and  C_3
REMARK                            x       y       z     vdW  Elec       q    Type
REMARK                         _______ _______ _______ _____ _____    ______ ____
ROOT
ATOM      1  N   UNL     1      11.239  35.144  37.866  0.00  0.00    -0.197 NA
ATOM      2  C   UNL     1      10.292  34.531  38.003  0.00  0.00    +0.059 C 
ATOM      3  C   UNL     1       9.066  33.736  38.181  0.00  0.00    +0.138 C 
ENDROOT
TORSDOF 0
ENDMDL
MODEL 5
REMARK VINA RESULT:      -1.7     15.461     15.632
REMARK  Name = CCN
REMARK  1 active torsions:
REMARK  status: ('A' for Active; 'I' for Inactive)
REMARK    1  A    between atoms: C_2  and  C_3
REMARK                            x       y       z     vdW  Elec       q    Type
REMARK                         _______ _______ _______ _____ _____    ______ ____
ROOT
ATOM      1  N   UNL     1       8.653  28.800  30.860  0.00  0.00    -0.197 NA
ATOM      2  C   UNL     1       8.650  28.121  31.770  0.00  0.00    +0.059 C 
ATOM      3  C   UNL     1       8.646  27.241  32.950  0.00  0.00    +0.138 C 
ENDROOT
TORSDOF 0
ENDMDL
MODEL 6
REMARK VINA RESULT:      -1.7     13.294     13.633
REMARK  Name = CCN
REMARK  1 active torsions:
REMARK  status: ('A' for Active; 'I' for Inactive)
REMARK    1  A    between atoms: C_2  and  C_3
REMARK                            x       y       z     vdW  Elec       q    Type
REMARK                         _______ _______ _______ _____ _____    ______ ____
ROOT
ATOM      1  N   UNL     1       5.584  26.595  33.883  0.00  0.00    -0.197 NA
ATOM      2  C   UNL     1       6.566  26.478  33.324  0.00  0.00    +0.059 C 
ATOM      3  C   UNL     1       7.839  26.326  32.600  0.00  0.00    +0.138 C 
ENDROOT
TORSDOF 0
ENDMDL
MODEL 7
REMARK VINA RESULT:      -1.7     11.877     12.244
REMARK  Name = CCN
REMARK  1 active torsions:
REMARK  status: ('A' for Active; 'I' for Inactive)
REMARK    1  A    between atoms: C_2  and  C_3
REMARK                            x       y       z     vdW  Elec       q    Type
REMARK                         _______ _______ _______ _____ _____    ______ ____
ROOT
ATOM      1  N   UNL     1       9.247  28.369  42.797  0.00  0.00    -0.197 NA
ATOM      2  C   UNL     1       8.241  27.876  42.608  0.00  0.00    +0.059 C 
ATOM      3  C   UNL     1       6.938  27.237  42.364  0.00  0.00    +0.138 C 
ENDROOT
TORSDOF 0
ENDMDL
MODEL 8
REMARK VINA RESULT:      -1.7     13.733     14.195
REMARK  Name = CCN
REMARK  1 active torsions:
REMARK  status: ('A' for Active; 'I' for Inactive)
REMARK    1  A    between atoms: C_2  and  C_3
REMARK                            x       y       z     vdW  Elec       q    Type
REMARK                         _______ _______ _______ _____ _____    ______ ____
ROOT
ATOM      1  N   UNL     1       8.395  30.578  36.690  0.00  0.00    -0.197 NA
ATOM      2  C   UNL     1       9.442  30.979  36.510  0.00  0.00    +0.059 C 
ATOM      3  C   UNL     1      10.800  31.499  36.277  0.00  0.00    +0.138 C 
ENDROOT
TORSDOF 0
ENDMDL
MODEL 9
REMARK VINA RESULT:      -1.6     11.227     11.238
REMARK  Name = CCN
REMARK  1 active torsions:
REMARK  status: ('A' for Active; 'I' for Inactive)
REMARK    1  A    between atoms: C_2  and  C_3
REMARK                            x       y       z     vdW  Elec       q    Type
REMARK                         _______ _______ _______ _____ _____    ______ ____
ROOT
ATOM      1  N   UNL     1      -6.657  30.453  50.510  0.00  0.00    -0.197 NA
ATOM      2  C   UNL     1      -7.116  30.823  51.481  0.00  0.00    +0.059 C 
ATOM      3  C   UNL     1      -7.710  31.303  52.739  0.00  0.00    +0.138 C 
ENDROOT
TORSDOF 0
ENDMDL
