MODEL 1
REMARK VINA RESULT:      -3.4      0.000      0.000
REMARK  Name = CHX
REMARK  0 active torsions:
REMARK  status: ('A' for Active; 'I' for Inactive)
REMARK                            x       y       z     vdW  Elec       q    Type
REMARK                         _______ _______ _______ _____ _____    ______ ____
ROOT
ATOM      1  C   UNL     1      -0.843  24.739  28.259  0.00  0.00    -0.000 C 
ATOM      2  C   UNL     1       0.310  25.542  28.861  0.00  0.00    -0.000 C 
ATOM      3  C   UNL     1       0.842  24.821  30.099  0.00  0.00    -0.000 C 
ATOM      4  C   UNL     1      -0.279  24.686  31.131  0.00  0.00    -0.000 C 
ATOM      5  C   UNL     1      -1.433  23.882  30.529  0.00  0.00    -0.000 C 
ATOM      6  C   UNL     1      -1.964  24.604  29.290  0.00  0.00    -0.000 C 
ENDROOT
TORSDOF 0
ENDMDL
MODEL 2
REMARK VINA RESULT:      -3.4      0.098      2.448
REMARK  Name = CHX
REMARK  0 active torsions:
REMARK  status: ('A' for Active; 'I' for Inactive)
REMARK                            x       y       z     vdW  Elec       q    Type
REMARK                         _______ _______ _______ _____ _____    ______ ____
ROOT
ATOM      1  C   UNL     1      -1.500  23.870  30.471  0.00  0.00    -0.000 C 
ATOM      2  C   UNL     1      -1.945  24.631  29.221  0.00  0.00    -0.000 C 
ATOM      3  C   UNL     1      -0.762  24.769  28.261  0.00  0.00    -0.000 C 
ATOM      4  C   UNL     1       0.367  25.536  28.951  0.00  0.00    -0.000 C 
ATOM      5  C   UNL     1       0.812  24.775  30.200  0.00  0.00    -0.000 C 
ATOM      6  C   UNL     1      -0.371  24.637  31.160  0.00  0.00    -0.000 C 
ENDROOT
TORSDOF 0
ENDMDL
MODEL 3
REMARK VINA RESULT:      -3.4      0.131      2.102
REMARK  Name = CHX
REMARK  0 active torsions:
REMARK  status: ('A' for Active; 'I' for Inactive)
REMARK                            x       y       z     vdW  Elec       q    Type
REMARK                         _______ _______ _______ _____ _____    ______ ____
ROOT
ATOM      1  C   UNL     1      -0.410  24.713  31.169  0.00  0.00    -0.000 C 
ATOM      2  C   UNL     1       0.796  24.787  30.232  0.00  0.00    -0.000 C 
ATOM      3  C   UNL     1       0.399  25.516  28.947  0.00  0.00    -0.000 C 
ATOM      4  C   UNL     1      -0.736  24.754  28.260  0.00  0.00    -0.000 C 
ATOM      5  C   UNL     1      -1.942  24.680  29.197  0.00  0.00    -0.000 C 
ATOM      6  C   UNL     1      -1.544  23.951  30.482  0.00  0.00    -0.000 C 
ENDROOT
TORSDOF 0
ENDMDL
MODEL 4
REMARK VINA RESULT:      -3.3      0.161      2.103
REMARK  Name = CHX
REMARK  0 active torsions:
REMARK  status: ('A' for Active; 'I' for Inactive)
REMARK                            x       y       z     vdW  Elec       q    Type
REMARK                         _______ _______ _______ _____ _____    ______ ____
ROOT
ATOM      1  C   UNL     1       0.430  25.410  28.955  0.00  0.00    -0.000 C 
ATOM      2  C   UNL     1      -0.734  24.703  28.260  0.00  0.00    -0.000 C 
ATOM      3  C   UNL     1      -1.937  24.653  29.203  0.00  0.00    -0.000 C 
ATOM      4  C   UNL     1      -1.558  23.885  30.471  0.00  0.00    -0.000 C 
ATOM      5  C   UNL     1      -0.394  24.592  31.166  0.00  0.00    -0.000 C 
ATOM      6  C   UNL     1       0.808  24.643  30.223  0.00  0.00    -0.000 C 
ENDROOT
TORSDOF 0
ENDMDL
MODEL 5
REMARK VINA RESULT:      -3.2     14.716     15.857
REMARK  Name = CHX
REMARK  0 active torsions:
REMARK  status: ('A' for Active; 'I' for Inactive)
REMARK                            x       y       z     vdW  Elec       q    Type
REMARK                         _______ _______ _______ _____ _____    ______ ____
ROOT
ATOM      1  C   UNL     1      10.808  32.745  36.409  0.00  0.00    -0.000 C 
ATOM      2  C   UNL     1      11.108  34.243  36.475  0.00  0.00    -0.000 C 
ATOM      3  C   UNL     1      10.786  34.766  37.875  0.00  0.00    -0.000 C 
ATOM      4  C   UNL     1       9.306  34.528  38.181  0.00  0.00    -0.000 C 
ATOM      5  C   UNL     1       9.006  33.030  38.115  0.00  0.00    -0.000 C 
ATOM      6  C   UNL     1       9.328  32.507  36.715  0.00  0.00    -0.000 C 
ENDROOT
TORSDOF 0
ENDMDL
MODEL 6
REMARK VINA RESULT:      -3.2     13.937     15.163
REMARK  Name = CHX
REMARK  0 active torsions:
REMARK  status: ('A' for Active; 'I' for Inactive)
REMARK                            x       y       z     vdW  Elec       q    Type
REMARK                         _______ _______ _______ _____ _____    ______ ____
ROOT
ATOM      1  C   UNL     1       9.120  32.023  37.532  0.00  0.00    -0.000 C 
ATOM      2  C   UNL     1       9.708  31.100  36.464  0.00  0.00    -0.000 C 
ATOM      3  C   UNL     1      11.185  31.438  36.256  0.00  0.00    -0.000 C 
ATOM      4  C   UNL     1      11.316  32.893  35.801  0.00  0.00    -0.000 C 
ATOM      5  C   UNL     1      10.727  33.816  36.869  0.00  0.00    -0.000 C 
ATOM      6  C   UNL     1       9.251  33.477  37.077  0.00  0.00    -0.000 C 
ENDROOT
TORSDOF 0
ENDMDL
MODEL 7
REMARK VINA RESULT:      -3.2     13.798     15.081
REMARK  Name = CHX
REMARK  0 active torsions:
REMARK  status: ('A' for Active; 'I' for Inactive)
REMARK                            x       y       z     vdW  Elec       q    Type
REMARK                         _______ _______ _______ _____ _____    ______ ____
ROOT
ATOM      1  C   UNL     1       9.016  31.373  36.916  0.00  0.00    -0.000 C 
ATOM      2  C   UNL     1       8.948  32.489  37.959  0.00  0.00    -0.000 C 
ATOM      3  C   UNL     1       9.348  33.816  37.313  0.00  0.00    -0.000 C 
ATOM      4  C   UNL     1      10.775  33.710  36.772  0.00  0.00    -0.000 C 
ATOM      5  C   UNL     1      10.843  32.594  35.728  0.00  0.00    -0.000 C 
ATOM      6  C   UNL     1      10.443  31.267  36.375  0.00  0.00    -0.000 C 
ENDROOT
TORSDOF 0
ENDMDL
MODEL 8
REMARK VINA RESULT:      -3.1     13.815     15.082
REMARK  Name = CHX
REMARK  0 active torsions:
REMARK  status: ('A' for Active; 'I' for Inactive)
REMARK                            x       y       z     vdW  Elec       q    Type
REMARK                         _______ _______ _______ _____ _____    ______ ____
ROOT
ATOM      1  C   UNL     1      10.809  33.726  36.769  0.00  0.00    -0.000 C 
ATOM      2  C   UNL     1       9.354  33.781  37.235  0.00  0.00    -0.000 C 
ATOM      3  C   UNL     1       8.970  32.443  37.868  0.00  0.00    -0.000 C 
ATOM      4  C   UNL     1       9.133  31.326  36.836  0.00  0.00    -0.000 C 
ATOM      5  C   UNL     1      10.588  31.270  36.370  0.00  0.00    -0.000 C 
ATOM      6  C   UNL     1      10.972  32.608  35.737  0.00  0.00    -0.000 C 
ENDROOT
TORSDOF 0
ENDMDL
MODEL 9
REMARK VINA RESULT:      -3.1     13.984     15.224
REMARK  Name = CHX
REMARK  0 active torsions:
REMARK  status: ('A' for Active; 'I' for Inactive)
REMARK                            x       y       z     vdW  Elec       q    Type
REMARK                         _______ _______ _______ _____ _____    ______ ____
ROOT
ATOM      1  C   UNL     1      11.128  33.263  35.919  0.00  0.00    -0.000 C 
ATOM      2  C   UNL     1      11.067  31.759  36.190  0.00  0.00    -0.000 C 
ATOM      3  C   UNL     1       9.619  31.348  36.457  0.00  0.00    -0.000 C 
ATOM      4  C   UNL     1       9.090  32.108  37.675  0.00  0.00    -0.000 C 
ATOM      5  C   UNL     1       9.151  33.612  37.404  0.00  0.00    -0.000 C 
ATOM      6  C   UNL     1      10.600  34.022  37.137  0.00  0.00    -0.000 C 
ENDROOT
TORSDOF 0
ENDMDL
