REMARK  Name = DMF
REMARK  2 active torsions:
REMARK  status: ('A' for Active; 'I' for Inactive)
REMARK    1  A    between atoms: C_1  and  N_5
REMARK    2  A    between atoms: C_2  and  N_5
REMARK                            x       y       z     vdW  Elec       q    Type
REMARK                         _______ _______ _______ _____ _____    ______ ____
ROOT
ATOM      1  C   UNL     1      -0.721   0.000   1.696  0.00  0.00    +0.131 C 
ATOM      2  N   UNL     1      -0.003   0.000   0.419  0.00  0.00    -0.310 N 
ATOM      3  C   UNL     1      -0.691   0.000  -0.739  0.00  0.00    +0.327 C 
ATOM      4  O   UNL     1      -0.097   0.000  -1.797  0.00  0.00    -0.279 OA
ATOM      5  C   UNL     1       1.461   0.000   0.402  0.00  0.00    +0.131 C 
ENDROOT
TORSDOF 0
