MODEL 1
REMARK VINA RESULT:      -2.6      0.000      0.000
REMARK  Name = EOH
REMARK  2 active torsions:
REMARK  status: ('A' for Active; 'I' for Inactive)
REMARK    1  A    between atoms: C_1  and  C_2
REMARK    2  A    between atoms: C_1  and  O_3
REMARK                            x       y       z     vdW  Elec       q    Type
REMARK                         _______ _______ _______ _____ _____    ______ ____
ROOT
ATOM      1  C   UNL     1       3.553  24.758  40.288  0.00  0.00    +0.152 C 
ATOM      2  C   UNL     1       4.125  24.526  38.888  0.00  0.00    +0.034 C 
ENDROOT
BRANCH   1   3
ATOM      3  O   UNL     1       2.174  25.120  40.184  0.00  0.00    -0.395 OA
ATOM      4  H   UNL     1       1.976  26.010  40.508  0.00  0.00    +0.209 HD
ENDBRANCH   1   3
TORSDOF 1
ENDMDL
MODEL 2
REMARK VINA RESULT:      -2.4      7.971      8.146
REMARK  Name = EOH
REMARK  2 active torsions:
REMARK  status: ('A' for Active; 'I' for Inactive)
REMARK    1  A    between atoms: C_1  and  C_2
REMARK    2  A    between atoms: C_1  and  O_3
REMARK                            x       y       z     vdW  Elec       q    Type
REMARK                         _______ _______ _______ _____ _____    ______ ____
ROOT
ATOM      1  C   UNL     1       3.590  26.036  48.141  0.00  0.00    +0.152 C 
ATOM      2  C   UNL     1       4.874  26.390  47.389  0.00  0.00    +0.034 C 
ENDROOT
BRANCH   1   3
ATOM      3  O   UNL     1       2.526  26.874  47.686  0.00  0.00    -0.395 OA
ATOM      4  H   UNL     1       2.781  27.800  47.561  0.00  0.00    +0.209 HD
ENDBRANCH   1   3
TORSDOF 1
ENDMDL
MODEL 3
REMARK VINA RESULT:      -2.2      8.534      8.714
REMARK  Name = EOH
REMARK  2 active torsions:
REMARK  status: ('A' for Active; 'I' for Inactive)
REMARK    1  A    between atoms: C_1  and  C_2
REMARK    2  A    between atoms: C_1  and  O_3
REMARK                            x       y       z     vdW  Elec       q    Type
REMARK                         _______ _______ _______ _____ _____    ______ ____
ROOT
ATOM      1  C   UNL     1       9.058  31.532  37.266  0.00  0.00    +0.152 C 
ATOM      2  C   UNL     1       8.713  30.417  36.277  0.00  0.00    +0.034 C 
ENDROOT
BRANCH   1   3
ATOM      3  O   UNL     1       8.484  31.232  38.540  0.00  0.00    -0.395 OA
ATOM      4  H   UNL     1       9.058  30.706  39.115  0.00  0.00    +0.209 HD
ENDBRANCH   1   3
TORSDOF 1
ENDMDL
MODEL 4
REMARK VINA RESULT:      -2.2      9.283      9.447
REMARK  Name = EOH
REMARK  2 active torsions:
REMARK  status: ('A' for Active; 'I' for Inactive)
REMARK    1  A    between atoms: C_1  and  C_2
REMARK    2  A    between atoms: C_1  and  O_3
REMARK                            x       y       z     vdW  Elec       q    Type
REMARK                         _______ _______ _______ _____ _____    ______ ____
ROOT
ATOM      1  C   UNL     1       9.052  31.551  37.288  0.00  0.00    +0.152 C 
ATOM      2  C   UNL     1       9.332  33.054  37.226  0.00  0.00    +0.034 C 
ENDROOT
BRANCH   1   3
ATOM      3  O   UNL     1       8.483  31.226  38.558  0.00  0.00    -0.395 OA
ATOM      4  H   UNL     1       7.594  30.846  38.505  0.00  0.00    +0.209 HD
ENDBRANCH   1   3
TORSDOF 1
ENDMDL
MODEL 5
REMARK VINA RESULT:      -2.1     10.153     10.170
REMARK  Name = EOH
REMARK  2 active torsions:
REMARK  status: ('A' for Active; 'I' for Inactive)
REMARK    1  A    between atoms: C_1  and  C_2
REMARK    2  A    between atoms: C_1  and  O_3
REMARK                            x       y       z     vdW  Elec       q    Type
REMARK                         _______ _______ _______ _____ _____    ______ ____
ROOT
ATOM      1  C   UNL     1      -4.850  30.964  40.368  0.00  0.00    +0.152 C 
ATOM      2  C   UNL     1      -5.620  29.667  40.623  0.00  0.00    +0.034 C 
ENDROOT
BRANCH   1   3
ATOM      3  O   UNL     1      -3.977  31.223  41.469  0.00  0.00    -0.395 OA
ATOM      4  H   UNL     1      -4.287  31.923  42.062  0.00  0.00    +0.209 HD
ENDBRANCH   1   3
TORSDOF 1
ENDMDL
MODEL 6
REMARK VINA RESULT:      -2.1      9.696      9.696
REMARK  Name = EOH
REMARK  2 active torsions:
REMARK  status: ('A' for Active; 'I' for Inactive)
REMARK    1  A    between atoms: C_1  and  C_2
REMARK    2  A    between atoms: C_1  and  O_3
REMARK                            x       y       z     vdW  Elec       q    Type
REMARK                         _______ _______ _______ _____ _____    ______ ____
ROOT
ATOM      1  C   UNL     1       9.353  26.840  33.294  0.00  0.00    +0.152 C 
ATOM      2  C   UNL     1       8.165  26.578  32.366  0.00  0.00    +0.034 C 
ENDROOT
BRANCH   1   3
ATOM      3  O   UNL     1      10.555  26.895  32.523  0.00  0.00    -0.395 OA
ATOM      4  H   UNL     1      10.738  27.765  32.141  0.00  0.00    +0.209 HD
ENDBRANCH   1   3
TORSDOF 1
ENDMDL
MODEL 7
REMARK VINA RESULT:      -1.9      6.654      6.785
REMARK  Name = EOH
REMARK  2 active torsions:
REMARK  status: ('A' for Active; 'I' for Inactive)
REMARK    1  A    between atoms: C_1  and  C_2
REMARK    2  A    between atoms: C_1  and  O_3
REMARK                            x       y       z     vdW  Elec       q    Type
REMARK                         _______ _______ _______ _____ _____    ______ ____
ROOT
ATOM      1  C   UNL     1       8.343  28.109  43.067  0.00  0.00    +0.152 C 
ATOM      2  C   UNL     1       7.186  27.372  42.390  0.00  0.00    +0.034 C 
ENDROOT
BRANCH   1   3
ATOM      3  O   UNL     1       9.512  28.008  42.252  0.00  0.00    -0.395 OA
ATOM      4  H   UNL     1      10.114  27.297  42.514  0.00  0.00    +0.209 HD
ENDBRANCH   1   3
TORSDOF 1
ENDMDL
MODEL 8
REMARK VINA RESULT:      -1.9      7.683      7.697
REMARK  Name = EOH
REMARK  2 active torsions:
REMARK  status: ('A' for Active; 'I' for Inactive)
REMARK    1  A    between atoms: C_1  and  C_2
REMARK    2  A    between atoms: C_1  and  O_3
REMARK                            x       y       z     vdW  Elec       q    Type
REMARK                         _______ _______ _______ _____ _____    ______ ____
ROOT
ATOM      1  C   UNL     1       8.689  29.511  35.909  0.00  0.00    +0.152 C 
ATOM      2  C   UNL     1       8.634  28.346  34.920  0.00  0.00    +0.034 C 
ENDROOT
BRANCH   1   3
ATOM      3  O   UNL     1       7.822  29.238  37.013  0.00  0.00    -0.395 OA
ATOM      4  H   UNL     1       7.117  28.606  36.812  0.00  0.00    +0.209 HD
ENDBRANCH   1   3
TORSDOF 1
ENDMDL
MODEL 9
REMARK VINA RESULT:      -1.9     12.162     12.381
REMARK  Name = EOH
REMARK  2 active torsions:
REMARK  status: ('A' for Active; 'I' for Inactive)
REMARK    1  A    between atoms: C_1  and  C_2
REMARK    2  A    between atoms: C_1  and  O_3
REMARK                            x       y       z     vdW  Elec       q    Type
REMARK                         _______ _______ _______ _____ _____    ______ ____
ROOT
ATOM      1  C   UNL     1      -1.537  31.962  49.064  0.00  0.00    +0.152 C 
ATOM      2  C   UNL     1      -1.096  32.599  47.745  0.00  0.00    +0.034 C 
ENDROOT
BRANCH   1   3
ATOM      3  O   UNL     1      -2.666  31.118  48.831  0.00  0.00    -0.395 OA
ATOM      4  H   UNL     1      -3.224  31.403  48.093  0.00  0.00    +0.209 HD
ENDBRANCH   1   3
TORSDOF 1
ENDMDL
