MODEL 1
REMARK VINA RESULT:      -4.1      0.000      0.000
REMARK  Name = HBX
REMARK  1 active torsions:
REMARK  status: ('A' for Active; 'I' for Inactive)
REMARK    1  A    between atoms: C_1  and  C_3
REMARK                            x       y       z     vdW  Elec       q    Type
REMARK                         _______ _______ _______ _____ _____    ______ ____
ROOT
ATOM      1  C   UNL     1       4.359  24.715  38.050  0.00  0.00    +0.014 A 
ATOM      2  C   UNL     1       4.797  25.943  37.545  0.00  0.00    +0.011 A 
ATOM      3  C   UNL     1       5.200  26.038  36.229  0.00  0.00    +0.001 A 
ATOM      4  C   UNL     1       5.161  24.924  35.408  0.00  0.00    +0.000 A 
ATOM      5  C   UNL     1       4.723  23.708  35.899  0.00  0.00    +0.001 A 
ATOM      6  C   UNL     1       4.323  23.595  37.214  0.00  0.00    +0.011 A 
ENDROOT
BRANCH   1   7
ATOM      7  C   UNL     1       3.934  24.603  39.455  0.00  0.00    +0.258 C 
ATOM      8  O   UNL     1       2.756  24.658  39.737  0.00  0.00    -0.296 OA
ENDBRANCH   1   7
TORSDOF 1
ENDMDL
MODEL 2
REMARK VINA RESULT:      -4.0      8.436      9.261
REMARK  Name = HBX
REMARK  1 active torsions:
REMARK  status: ('A' for Active; 'I' for Inactive)
REMARK    1  A    between atoms: C_1  and  C_3
REMARK                            x       y       z     vdW  Elec       q    Type
REMARK                         _______ _______ _______ _____ _____    ______ ____
ROOT
ATOM      1  C   UNL     1      -1.249  24.014  30.559  0.00  0.00    +0.014 A 
ATOM      2  C   UNL     1      -1.762  24.293  29.289  0.00  0.00    +0.011 A 
ATOM      3  C   UNL     1      -0.981  24.954  28.363  0.00  0.00    +0.001 A 
ATOM      4  C   UNL     1       0.311  25.330  28.686  0.00  0.00    +0.000 A 
ATOM      5  C   UNL     1       0.828  25.053  29.939  0.00  0.00    +0.001 A 
ATOM      6  C   UNL     1       0.058  24.398  30.877  0.00  0.00    +0.011 A 
ENDROOT
BRANCH   1   7
ATOM      7  C   UNL     1      -2.077  23.315  31.554  0.00  0.00    +0.258 C 
ATOM      8  O   UNL     1      -2.370  22.150  31.388  0.00  0.00    -0.296 OA
ENDBRANCH   1   7
TORSDOF 1
ENDMDL
MODEL 3
REMARK VINA RESULT:      -4.0      8.910     10.150
REMARK  Name = HBX
REMARK  1 active torsions:
REMARK  status: ('A' for Active; 'I' for Inactive)
REMARK    1  A    between atoms: C_1  and  C_3
REMARK                            x       y       z     vdW  Elec       q    Type
REMARK                         _______ _______ _______ _____ _____    ______ ____
ROOT
ATOM      1  C   UNL     1       9.951  32.292  36.760  0.00  0.00    +0.014 A 
ATOM      2  C   UNL     1      11.062  31.688  36.165  0.00  0.00    +0.011 A 
ATOM      3  C   UNL     1      12.033  32.469  35.573  0.00  0.00    +0.001 A 
ATOM      4  C   UNL     1      11.913  33.848  35.578  0.00  0.00    +0.000 A 
ATOM      5  C   UNL     1      10.820  34.453  36.170  0.00  0.00    +0.001 A 
ATOM      6  C   UNL     1       9.838  33.686  36.761  0.00  0.00    +0.011 A 
ENDROOT
BRANCH   1   7
ATOM      7  C   UNL     1       8.908  31.465  37.389  0.00  0.00    +0.258 C 
ATOM      8  O   UNL     1       8.534  31.715  38.515  0.00  0.00    -0.296 OA
ENDBRANCH   1   7
TORSDOF 1
ENDMDL
MODEL 4
REMARK VINA RESULT:      -4.0      8.787     10.065
REMARK  Name = HBX
REMARK  1 active torsions:
REMARK  status: ('A' for Active; 'I' for Inactive)
REMARK    1  A    between atoms: C_1  and  C_3
REMARK                            x       y       z     vdW  Elec       q    Type
REMARK                         _______ _______ _______ _____ _____    ______ ____
ROOT
ATOM      1  C   UNL     1       9.699  32.326  36.871  0.00  0.00    +0.014 A 
ATOM      2  C   UNL     1       8.993  32.954  37.902  0.00  0.00    +0.011 A 
ATOM      3  C   UNL     1       9.374  34.210  38.328  0.00  0.00    +0.001 A 
ATOM      4  C   UNL     1      10.445  34.851  37.730  0.00  0.00    +0.000 A 
ATOM      5  C   UNL     1      11.144  34.238  36.705  0.00  0.00    +0.001 A 
ATOM      6  C   UNL     1      10.780  32.981  36.272  0.00  0.00    +0.011 A 
ENDROOT
BRANCH   1   7
ATOM      7  C   UNL     1       9.303  30.983  36.415  0.00  0.00    +0.258 C 
ATOM      8  O   UNL     1       8.265  30.493  36.805  0.00  0.00    -0.296 OA
ENDBRANCH   1   7
TORSDOF 1
ENDMDL
MODEL 5
REMARK VINA RESULT:      -3.9      9.355     10.429
REMARK  Name = HBX
REMARK  1 active torsions:
REMARK  status: ('A' for Active; 'I' for Inactive)
REMARK    1  A    between atoms: C_1  and  C_3
REMARK                            x       y       z     vdW  Elec       q    Type
REMARK                         _______ _______ _______ _____ _____    ______ ____
ROOT
ATOM      1  C   UNL     1       9.801  33.762  37.393  0.00  0.00    +0.014 A 
ATOM      2  C   UNL     1      10.893  33.579  36.539  0.00  0.00    +0.011 A 
ATOM      3  C   UNL     1      11.153  32.329  36.017  0.00  0.00    +0.001 A 
ATOM      4  C   UNL     1      10.329  31.261  36.327  0.00  0.00    +0.000 A 
ATOM      5  C   UNL     1       9.243  31.436  37.166  0.00  0.00    +0.001 A 
ATOM      6  C   UNL     1       8.974  32.678  37.701  0.00  0.00    +0.011 A 
ENDROOT
BRANCH   1   7
ATOM      7  C   UNL     1       9.520  35.091  37.960  0.00  0.00    +0.258 C 
ATOM      8  O   UNL     1      10.292  36.007  37.769  0.00  0.00    -0.296 OA
ENDBRANCH   1   7
TORSDOF 1
ENDMDL
MODEL 6
REMARK VINA RESULT:      -3.9      9.688     11.015
REMARK  Name = HBX
REMARK  1 active torsions:
REMARK  status: ('A' for Active; 'I' for Inactive)
REMARK    1  A    between atoms: C_1  and  C_3
REMARK                            x       y       z     vdW  Elec       q    Type
REMARK                         _______ _______ _______ _____ _____    ______ ____
ROOT
ATOM      1  C   UNL     1      11.146  33.256  36.130  0.00  0.00    +0.014 A 
ATOM      2  C   UNL     1      10.951  31.878  36.002  0.00  0.00    +0.011 A 
ATOM      3  C   UNL     1       9.921  31.264  36.686  0.00  0.00    +0.001 A 
ATOM      4  C   UNL     1       9.077  32.013  37.488  0.00  0.00    +0.000 A 
ATOM      5  C   UNL     1       9.261  33.378  37.615  0.00  0.00    +0.001 A 
ATOM      6  C   UNL     1      10.288  34.005  36.943  0.00  0.00    +0.011 A 
ENDROOT
BRANCH   1   7
ATOM      7  C   UNL     1      12.246  33.917  35.409  0.00  0.00    +0.258 C 
ATOM      8  O   UNL     1      12.922  34.752  35.970  0.00  0.00    -0.296 OA
ENDBRANCH   1   7
TORSDOF 1
ENDMDL
MODEL 7
REMARK VINA RESULT:      -3.9     10.180     11.395
REMARK  Name = HBX
REMARK  1 active torsions:
REMARK  status: ('A' for Active; 'I' for Inactive)
REMARK    1  A    between atoms: C_1  and  C_3
REMARK                            x       y       z     vdW  Elec       q    Type
REMARK                         _______ _______ _______ _____ _____    ______ ____
ROOT
ATOM      1  C   UNL     1      11.167  33.683  36.328  0.00  0.00    +0.014 A 
ATOM      2  C   UNL     1      10.834  34.613  37.317  0.00  0.00    +0.011 A 
ATOM      3  C   UNL     1       9.762  34.371  38.152  0.00  0.00    +0.001 A 
ATOM      4  C   UNL     1       9.025  33.207  38.018  0.00  0.00    +0.000 A 
ATOM      5  C   UNL     1       9.353  32.279  37.046  0.00  0.00    +0.001 A 
ATOM      6  C   UNL     1      10.418  32.509  36.200  0.00  0.00    +0.011 A 
ENDROOT
BRANCH   1   7
ATOM      7  C   UNL     1      12.305  33.935  35.429  0.00  0.00    +0.258 C 
ATOM      8  O   UNL     1      13.150  34.749  35.736  0.00  0.00    -0.296 OA
ENDBRANCH   1   7
TORSDOF 1
ENDMDL
MODEL 8
REMARK VINA RESULT:      -3.9      1.342      2.427
REMARK  Name = HBX
REMARK  1 active torsions:
REMARK  status: ('A' for Active; 'I' for Inactive)
REMARK    1  A    between atoms: C_1  and  C_3
REMARK                            x       y       z     vdW  Elec       q    Type
REMARK                         _______ _______ _______ _____ _____    ______ ____
ROOT
ATOM      1  C   UNL     1       4.914  24.217  36.885  0.00  0.00    +0.014 A 
ATOM      2  C   UNL     1       4.074  23.117  36.693  0.00  0.00    +0.011 A 
ATOM      3  C   UNL     1       4.359  22.201  35.701  0.00  0.00    +0.001 A 
ATOM      4  C   UNL     1       5.480  22.365  34.905  0.00  0.00    +0.000 A 
ATOM      5  C   UNL     1       6.320  23.448  35.094  0.00  0.00    +0.001 A 
ATOM      6  C   UNL     1       6.045  24.375  36.077  0.00  0.00    +0.011 A 
ENDROOT
BRANCH   1   7
ATOM      7  C   UNL     1       4.614  25.202  37.937  0.00  0.00    +0.258 C 
ATOM      8  O   UNL     1       3.675  25.024  38.683  0.00  0.00    -0.296 OA
ENDBRANCH   1   7
TORSDOF 1
ENDMDL
MODEL 9
REMARK VINA RESULT:      -3.8      9.139     10.010
REMARK  Name = HBX
REMARK  1 active torsions:
REMARK  status: ('A' for Active; 'I' for Inactive)
REMARK    1  A    between atoms: C_1  and  C_3
REMARK                            x       y       z     vdW  Elec       q    Type
REMARK                         _______ _______ _______ _____ _____    ______ ____
ROOT
ATOM      1  C   UNL     1      -1.816  24.179  29.620  0.00  0.00    +0.014 A 
ATOM      2  C   UNL     1      -1.155  23.994  30.838  0.00  0.00    +0.011 A 
ATOM      3  C   UNL     1       0.158  24.396  30.974  0.00  0.00    +0.001 A 
ATOM      4  C   UNL     1       0.816  24.991  29.911  0.00  0.00    +0.000 A 
ATOM      5  C   UNL     1       0.166  25.183  28.705  0.00  0.00    +0.001 A 
ATOM      6  C   UNL     1      -1.144  24.781  28.552  0.00  0.00    +0.011 A 
ENDROOT
BRANCH   1   7
ATOM      7  C   UNL     1      -3.215  23.748  29.465  0.00  0.00    +0.258 C 
ATOM      8  O   UNL     1      -3.852  24.098  28.494  0.00  0.00    -0.296 OA
ENDBRANCH   1   7
TORSDOF 1
ENDMDL
