MODEL 1
REMARK VINA RESULT:      -2.9      0.000      0.000
REMARK  Name = IPA
REMARK  3 active torsions:
REMARK  status: ('A' for Active; 'I' for Inactive)
REMARK    1  A    between atoms: C_1  and  C_2
REMARK    2  A    between atoms: C_2  and  C_3
REMARK    3  A    between atoms: C_2  and  O_4
REMARK                            x       y       z     vdW  Elec       q    Type
REMARK                         _______ _______ _______ _____ _____    ______ ____
ROOT
ATOM      1  C   UNL     1       3.403  24.652  48.380  0.00  0.00    +0.037 C 
ATOM      2  C   UNL     1       3.784  26.114  48.134  0.00  0.00    +0.108 C 
ATOM      3  C   UNL     1       4.895  26.181  47.084  0.00  0.00    +0.037 C 
ENDROOT
BRANCH   2   4
ATOM      4  O   UNL     1       2.642  26.831  47.666  0.00  0.00    -0.392 OA
ATOM      5  H   UNL     1       2.855  27.657  47.210  0.00  0.00    +0.210 HD
ENDBRANCH   2   4
TORSDOF 1
ENDMDL
MODEL 2
REMARK VINA RESULT:      -2.8      7.353      7.933
REMARK  Name = IPA
REMARK  3 active torsions:
REMARK  status: ('A' for Active; 'I' for Inactive)
REMARK    1  A    between atoms: C_1  and  C_2
REMARK    2  A    between atoms: C_2  and  C_3
REMARK    3  A    between atoms: C_2  and  O_4
REMARK                            x       y       z     vdW  Elec       q    Type
REMARK                         _______ _______ _______ _____ _____    ______ ____
ROOT
ATOM      1  C   UNL     1       4.197  24.962  38.830  0.00  0.00    +0.037 C 
ATOM      2  C   UNL     1       3.509  24.576  40.142  0.00  0.00    +0.108 C 
ATOM      3  C   UNL     1       4.346  25.073  41.322  0.00  0.00    +0.037 C 
ENDROOT
BRANCH   2   4
ATOM      4  O   UNL     1       2.212  25.172  40.193  0.00  0.00    -0.392 OA
ATOM      5  H   UNL     1       1.553  24.726  39.644  0.00  0.00    +0.210 HD
ENDBRANCH   2   4
TORSDOF 1
ENDMDL
MODEL 3
REMARK VINA RESULT:      -2.6     13.022     13.336
REMARK  Name = IPA
REMARK  3 active torsions:
REMARK  status: ('A' for Active; 'I' for Inactive)
REMARK    1  A    between atoms: C_1  and  C_2
REMARK    2  A    between atoms: C_2  and  C_3
REMARK    3  A    between atoms: C_2  and  O_4
REMARK                            x       y       z     vdW  Elec       q    Type
REMARK                         _______ _______ _______ _____ _____    ______ ____
ROOT
ATOM      1  C   UNL     1      10.433  31.403  36.485  0.00  0.00    +0.037 C 
ATOM      2  C   UNL     1       8.946  31.141  36.731  0.00  0.00    +0.108 C 
ATOM      3  C   UNL     1       8.550  29.808  36.093  0.00  0.00    +0.037 C 
ENDROOT
BRANCH   2   4
ATOM      4  O   UNL     1       8.697  31.090  38.136  0.00  0.00    -0.392 OA
ATOM      5  H   UNL     1       8.983  30.268  38.557  0.00  0.00    +0.210 HD
ENDBRANCH   2   4
TORSDOF 1
ENDMDL
MODEL 4
REMARK VINA RESULT:      -2.6     12.133     12.253
REMARK  Name = IPA
REMARK  3 active torsions:
REMARK  status: ('A' for Active; 'I' for Inactive)
REMARK    1  A    between atoms: C_1  and  C_2
REMARK    2  A    between atoms: C_2  and  C_3
REMARK    3  A    between atoms: C_2  and  O_4
REMARK                            x       y       z     vdW  Elec       q    Type
REMARK                         _______ _______ _______ _____ _____    ______ ____
ROOT
ATOM      1  C   UNL     1      -5.630  29.620  40.645  0.00  0.00    +0.037 C 
ATOM      2  C   UNL     1      -4.470  30.576  40.357  0.00  0.00    +0.108 C 
ATOM      3  C   UNL     1      -4.944  31.683  39.414  0.00  0.00    +0.037 C 
ENDROOT
BRANCH   2   4
ATOM      4  O   UNL     1      -4.015  31.154  41.580  0.00  0.00    -0.392 OA
ATOM      5  H   UNL     1      -4.530  30.893  42.355  0.00  0.00    +0.210 HD
ENDBRANCH   2   4
TORSDOF 1
ENDMDL
MODEL 5
REMARK VINA RESULT:      -2.5     12.961     13.416
REMARK  Name = IPA
REMARK  3 active torsions:
REMARK  status: ('A' for Active; 'I' for Inactive)
REMARK    1  A    between atoms: C_1  and  C_2
REMARK    2  A    between atoms: C_2  and  C_3
REMARK    3  A    between atoms: C_2  and  O_4
REMARK                            x       y       z     vdW  Elec       q    Type
REMARK                         _______ _______ _______ _____ _____    ______ ____
ROOT
ATOM      1  C   UNL     1       8.267  31.010  35.022  0.00  0.00    +0.037 C 
ATOM      2  C   UNL     1       8.844  30.452  36.325  0.00  0.00    +0.108 C 
ATOM      3  C   UNL     1       9.082  31.598  37.310  0.00  0.00    +0.037 C 
ENDROOT
BRANCH   2   4
ATOM      4  O   UNL     1       7.923  29.520  36.893  0.00  0.00    -0.392 OA
ATOM      5  H   UNL     1       7.100  29.425  36.393  0.00  0.00    +0.210 HD
ENDBRANCH   2   4
TORSDOF 1
ENDMDL
MODEL 6
REMARK VINA RESULT:      -2.5     11.417     11.660
REMARK  Name = IPA
REMARK  3 active torsions:
REMARK  status: ('A' for Active; 'I' for Inactive)
REMARK    1  A    between atoms: C_1  and  C_2
REMARK    2  A    between atoms: C_2  and  C_3
REMARK    3  A    between atoms: C_2  and  O_4
REMARK                            x       y       z     vdW  Elec       q    Type
REMARK                         _______ _______ _______ _____ _____    ______ ____
ROOT
ATOM      1  C   UNL     1      -3.829  31.463  39.767  0.00  0.00    +0.037 C 
ATOM      2  C   UNL     1      -4.132  30.569  40.972  0.00  0.00    +0.108 C 
ATOM      3  C   UNL     1      -5.256  29.595  40.615  0.00  0.00    +0.037 C 
ENDROOT
BRANCH   2   4
ATOM      4  O   UNL     1      -2.959  29.834  41.326  0.00  0.00    -0.392 OA
ATOM      5  H   UNL     1      -2.352  30.316  41.903  0.00  0.00    +0.210 HD
ENDBRANCH   2   4
TORSDOF 1
ENDMDL
MODEL 7
REMARK VINA RESULT:      -2.4     15.161     15.788
REMARK  Name = IPA
REMARK  3 active torsions:
REMARK  status: ('A' for Active; 'I' for Inactive)
REMARK    1  A    between atoms: C_1  and  C_2
REMARK    2  A    between atoms: C_2  and  C_3
REMARK    3  A    between atoms: C_2  and  O_4
REMARK                            x       y       z     vdW  Elec       q    Type
REMARK                         _______ _______ _______ _____ _____    ______ ____
ROOT
ATOM      1  C   UNL     1       8.861  27.701  34.363  0.00  0.00    +0.037 C 
ATOM      2  C   UNL     1       9.154  26.619  33.321  0.00  0.00    +0.108 C 
ATOM      3  C   UNL     1       7.982  26.523  32.343  0.00  0.00    +0.037 C 
ENDROOT
BRANCH   2   4
ATOM      4  O   UNL     1      10.344  26.955  32.608  0.00  0.00    -0.392 OA
ATOM      5  H   UNL     1      10.195  27.518  31.836  0.00  0.00    +0.210 HD
ENDBRANCH   2   4
TORSDOF 1
ENDMDL
MODEL 8
REMARK VINA RESULT:      -2.3     11.993     12.462
REMARK  Name = IPA
REMARK  3 active torsions:
REMARK  status: ('A' for Active; 'I' for Inactive)
REMARK    1  A    between atoms: C_1  and  C_2
REMARK    2  A    between atoms: C_2  and  C_3
REMARK    3  A    between atoms: C_2  and  O_4
REMARK                            x       y       z     vdW  Elec       q    Type
REMARK                         _______ _______ _______ _____ _____    ______ ____
ROOT
ATOM      1  C   UNL     1      -7.474  32.306  49.986  0.00  0.00    +0.037 C 
ATOM      2  C   UNL     1      -6.689  31.278  50.803  0.00  0.00    +0.108 C 
ATOM      3  C   UNL     1      -7.521  30.842  52.010  0.00  0.00    +0.037 C 
ENDROOT
BRANCH   2   4
ATOM      4  O   UNL     1      -6.400  30.142  49.987  0.00  0.00    -0.392 OA
ATOM      5  H   UNL     1      -5.574  29.694  50.214  0.00  0.00    +0.210 HD
ENDBRANCH   2   4
TORSDOF 1
ENDMDL
MODEL 9
REMARK VINA RESULT:      -2.3     12.380     12.516
REMARK  Name = IPA
REMARK  3 active torsions:
REMARK  status: ('A' for Active; 'I' for Inactive)
REMARK    1  A    between atoms: C_1  and  C_2
REMARK    2  A    between atoms: C_2  and  C_3
REMARK    3  A    between atoms: C_2  and  O_4
REMARK                            x       y       z     vdW  Elec       q    Type
REMARK                         _______ _______ _______ _____ _____    ______ ____
ROOT
ATOM      1  C   UNL     1      -5.132  28.973  39.179  0.00  0.00    +0.037 C 
ATOM      2  C   UNL     1      -5.497  29.476  40.578  0.00  0.00    +0.108 C 
ATOM      3  C   UNL     1      -4.544  30.604  40.979  0.00  0.00    +0.037 C 
ENDROOT
BRANCH   2   4
ATOM      4  O   UNL     1      -6.839  29.964  40.574  0.00  0.00    -0.392 OA
ATOM      5  H   UNL     1      -7.408  29.544  39.916  0.00  0.00    +0.210 HD
ENDBRANCH   2   4
TORSDOF 1
ENDMDL
