MODEL 1
REMARK VINA RESULT:      -3.9      0.000      0.000
REMARK  Name = IPH
REMARK  1 active torsions:
REMARK  status: ('A' for Active; 'I' for Inactive)
REMARK    1  A    between atoms: C_1  and  O_7
REMARK                            x       y       z     vdW  Elec       q    Type
REMARK                         _______ _______ _______ _____ _____    ______ ____
ROOT
ATOM      1  C   UNL     1       9.159  31.903  37.657  0.00  0.00    +0.117 A 
ATOM      2  C   UNL     1       9.957  31.422  36.629  0.00  0.00    +0.045 A 
ATOM      3  C   UNL     1      10.701  32.299  35.866  0.00  0.00    +0.004 A 
ATOM      4  C   UNL     1      10.663  33.655  36.134  0.00  0.00    +0.000 A 
ATOM      5  C   UNL     1       9.872  34.136  37.161  0.00  0.00    +0.004 A 
ATOM      6  C   UNL     1       9.122  33.263  37.922  0.00  0.00    +0.045 A 
ENDROOT
BRANCH   1   7
ATOM      7  O   UNL     1       8.421  31.041  38.405  0.00  0.00    -0.507 OA
ATOM      8  H   UNL     1       9.033  30.601  39.009  0.00  0.00    +0.292 HD
ENDBRANCH   1   7
TORSDOF 1
ENDMDL
MODEL 2
REMARK VINA RESULT:      -3.9      9.787     10.267
REMARK  Name = IPH
REMARK  1 active torsions:
REMARK  status: ('A' for Active; 'I' for Inactive)
REMARK    1  A    between atoms: C_1  and  O_7
REMARK                            x       y       z     vdW  Elec       q    Type
REMARK                         _______ _______ _______ _____ _____    ______ ____
ROOT
ATOM      1  C   UNL     1       3.455  24.808  40.204  0.00  0.00    +0.117 A 
ATOM      2  C   UNL     1       4.161  24.700  41.392  0.00  0.00    +0.045 A 
ATOM      3  C   UNL     1       5.500  24.366  41.371  0.00  0.00    +0.004 A 
ATOM      4  C   UNL     1       6.142  24.151  40.165  0.00  0.00    +0.000 A 
ATOM      5  C   UNL     1       5.440  24.263  38.978  0.00  0.00    +0.004 A 
ATOM      6  C   UNL     1       4.100  24.591  38.996  0.00  0.00    +0.045 A 
ENDROOT
BRANCH   1   7
ATOM      7  O   UNL     1       2.135  25.131  40.223  0.00  0.00    -0.507 OA
ATOM      8  H   UNL     1       2.050  25.927  40.763  0.00  0.00    +0.292 HD
ENDBRANCH   1   7
TORSDOF 1
ENDMDL
MODEL 3
REMARK VINA RESULT:      -3.8     14.685     15.386
REMARK  Name = IPH
REMARK  1 active torsions:
REMARK  status: ('A' for Active; 'I' for Inactive)
REMARK    1  A    between atoms: C_1  and  O_7
REMARK                            x       y       z     vdW  Elec       q    Type
REMARK                         _______ _______ _______ _____ _____    ______ ____
ROOT
ATOM      1  C   UNL     1      -1.715  24.307  29.106  0.00  0.00    +0.117 A 
ATOM      2  C   UNL     1      -1.364  24.029  30.419  0.00  0.00    +0.045 A 
ATOM      3  C   UNL     1      -0.118  24.387  30.890  0.00  0.00    +0.004 A 
ATOM      4  C   UNL     1       0.778  25.035  30.058  0.00  0.00    +0.000 A 
ATOM      5  C   UNL     1       0.428  25.317  28.750  0.00  0.00    +0.004 A 
ATOM      6  C   UNL     1      -0.815  24.955  28.274  0.00  0.00    +0.045 A 
ENDROOT
BRANCH   1   7
ATOM      7  O   UNL     1      -2.941  23.950  28.638  0.00  0.00    -0.507 OA
ATOM      8  H   UNL     1      -2.897  23.008  28.430  0.00  0.00    +0.292 HD
ENDBRANCH   1   7
TORSDOF 1
ENDMDL
MODEL 4
REMARK VINA RESULT:      -3.6      2.148      3.137
REMARK  Name = IPH
REMARK  1 active torsions:
REMARK  status: ('A' for Active; 'I' for Inactive)
REMARK    1  A    between atoms: C_1  and  O_7
REMARK                            x       y       z     vdW  Elec       q    Type
REMARK                         _______ _______ _______ _____ _____    ______ ____
ROOT
ATOM      1  C   UNL     1      11.544  32.353  35.875  0.00  0.00    +0.117 A 
ATOM      2  C   UNL     1      11.274  33.665  36.231  0.00  0.00    +0.045 A 
ATOM      3  C   UNL     1      10.127  33.966  36.938  0.00  0.00    +0.004 A 
ATOM      4  C   UNL     1       9.254  32.957  37.304  0.00  0.00    +0.000 A 
ATOM      5  C   UNL     1       9.525  31.647  36.954  0.00  0.00    +0.004 A 
ATOM      6  C   UNL     1      10.667  31.343  36.242  0.00  0.00    +0.045 A 
ENDROOT
BRANCH   1   7
ATOM      7  O   UNL     1      12.670  32.055  35.173  0.00  0.00    -0.507 OA
ATOM      8  H   UNL     1      12.731  31.092  35.137  0.00  0.00    +0.292 HD
ENDBRANCH   1   7
TORSDOF 1
ENDMDL
MODEL 5
REMARK VINA RESULT:      -3.6      7.974      9.180
REMARK  Name = IPH
REMARK  1 active torsions:
REMARK  status: ('A' for Active; 'I' for Inactive)
REMARK    1  A    between atoms: C_1  and  O_7
REMARK                            x       y       z     vdW  Elec       q    Type
REMARK                         _______ _______ _______ _____ _____    ______ ____
ROOT
ATOM      1  C   UNL     1       4.905  26.271  37.312  0.00  0.00    +0.117 A 
ATOM      2  C   UNL     1       4.617  25.334  38.293  0.00  0.00    +0.045 A 
ATOM      3  C   UNL     1       4.376  24.021  37.943  0.00  0.00    +0.004 A 
ATOM      4  C   UNL     1       4.435  23.636  36.616  0.00  0.00    +0.000 A 
ATOM      5  C   UNL     1       4.727  24.567  35.637  0.00  0.00    +0.004 A 
ATOM      6  C   UNL     1       4.962  25.883  35.982  0.00  0.00    +0.045 A 
ENDROOT
BRANCH   1   7
ATOM      7  O   UNL     1       5.137  27.566  37.654  0.00  0.00    -0.507 OA
ATOM      8  H   UNL     1       5.710  27.552  38.431  0.00  0.00    +0.292 HD
ENDBRANCH   1   7
TORSDOF 1
ENDMDL
MODEL 6
REMARK VINA RESULT:      -3.6      7.876      8.647
REMARK  Name = IPH
REMARK  1 active torsions:
REMARK  status: ('A' for Active; 'I' for Inactive)
REMARK    1  A    between atoms: C_1  and  O_7
REMARK                            x       y       z     vdW  Elec       q    Type
REMARK                         _______ _______ _______ _____ _____    ______ ____
ROOT
ATOM      1  C   UNL     1       5.016  26.281  34.630  0.00  0.00    +0.117 A 
ATOM      2  C   UNL     1       4.910  25.119  35.380  0.00  0.00    +0.045 A 
ATOM      3  C   UNL     1       5.938  24.198  35.374  0.00  0.00    +0.004 A 
ATOM      4  C   UNL     1       7.079  24.438  34.630  0.00  0.00    +0.000 A 
ATOM      5  C   UNL     1       7.189  25.598  33.885  0.00  0.00    +0.004 A 
ATOM      6  C   UNL     1       6.161  26.518  33.884  0.00  0.00    +0.045 A 
ENDROOT
BRANCH   1   7
ATOM      7  O   UNL     1       4.003  27.186  34.630  0.00  0.00    -0.507 OA
ATOM      8  H   UNL     1       4.057  27.666  35.467  0.00  0.00    +0.292 HD
ENDBRANCH   1   7
TORSDOF 1
ENDMDL
MODEL 7
REMARK VINA RESULT:      -3.5      8.028      9.051
REMARK  Name = IPH
REMARK  1 active torsions:
REMARK  status: ('A' for Active; 'I' for Inactive)
REMARK    1  A    between atoms: C_1  and  O_7
REMARK                            x       y       z     vdW  Elec       q    Type
REMARK                         _______ _______ _______ _____ _____    ______ ____
ROOT
ATOM      1  C   UNL     1       5.844  26.068  34.580  0.00  0.00    +0.117 A 
ATOM      2  C   UNL     1       6.873  25.173  34.327  0.00  0.00    +0.045 A 
ATOM      3  C   UNL     1       6.780  23.870  34.772  0.00  0.00    +0.004 A 
ATOM      4  C   UNL     1       5.655  23.452  35.461  0.00  0.00    +0.000 A 
ATOM      5  C   UNL     1       4.626  24.342  35.710  0.00  0.00    +0.004 A 
ATOM      6  C   UNL     1       4.718  25.647  35.271  0.00  0.00    +0.045 A 
ENDROOT
BRANCH   1   7
ATOM      7  O   UNL     1       5.937  27.353  34.147  0.00  0.00    -0.507 OA
ATOM      8  H   UNL     1       5.047  27.625  33.887  0.00  0.00    +0.292 HD
ENDBRANCH   1   7
TORSDOF 1
ENDMDL
MODEL 8
REMARK VINA RESULT:      -3.5      9.361     10.470
REMARK  Name = IPH
REMARK  1 active torsions:
REMARK  status: ('A' for Active; 'I' for Inactive)
REMARK    1  A    between atoms: C_1  and  O_7
REMARK                            x       y       z     vdW  Elec       q    Type
REMARK                         _______ _______ _______ _____ _____    ______ ____
ROOT
ATOM      1  C   UNL     1       4.391  23.119  35.944  0.00  0.00    +0.117 A 
ATOM      2  C   UNL     1       4.687  24.463  35.773  0.00  0.00    +0.045 A 
ATOM      3  C   UNL     1       5.864  24.838  35.157  0.00  0.00    +0.004 A 
ATOM      4  C   UNL     1       6.742  23.874  34.698  0.00  0.00    +0.000 A 
ATOM      5  C   UNL     1       6.447  22.532  34.862  0.00  0.00    +0.004 A 
ATOM      6  C   UNL     1       5.274  22.154  35.483  0.00  0.00    +0.045 A 
ENDROOT
BRANCH   1   7
ATOM      7  O   UNL     1       3.235  22.748  36.555  0.00  0.00    -0.507 OA
ATOM      8  H   UNL     1       3.266  23.106  37.451  0.00  0.00    +0.292 HD
ENDBRANCH   1   7
TORSDOF 1
ENDMDL
MODEL 9
REMARK VINA RESULT:      -3.4      9.129     10.258
REMARK  Name = IPH
REMARK  1 active torsions:
REMARK  status: ('A' for Active; 'I' for Inactive)
REMARK    1  A    between atoms: C_1  and  O_7
REMARK                            x       y       z     vdW  Elec       q    Type
REMARK                         _______ _______ _______ _____ _____    ______ ____
ROOT
ATOM      1  C   UNL     1       6.688  23.866  34.791  0.00  0.00    +0.117 A 
ATOM      2  C   UNL     1       6.334  22.528  34.877  0.00  0.00    +0.045 A 
ATOM      3  C   UNL     1       5.108  22.171  35.400  0.00  0.00    +0.004 A 
ATOM      4  C   UNL     1       4.226  23.147  35.827  0.00  0.00    +0.000 A 
ATOM      5  C   UNL     1       4.575  24.482  35.738  0.00  0.00    +0.004 A 
ATOM      6  C   UNL     1       5.803  24.843  35.221  0.00  0.00    +0.045 A 
ENDROOT
BRANCH   1   7
ATOM      7  O   UNL     1       7.897  24.219  34.281  0.00  0.00    -0.507 OA
ATOM      8  H   UNL     1       8.244  23.444  33.821  0.00  0.00    +0.292 HD
ENDBRANCH   1   7
TORSDOF 1
ENDMDL
