REMARK  Name = IPH
REMARK  1 active torsions:
REMARK  status: ('A' for Active; 'I' for Inactive)
REMARK    1  A    between atoms: C_1  and  O_7
REMARK                            x       y       z     vdW  Elec       q    Type
REMARK                         _______ _______ _______ _____ _____    ______ ____
ROOT
ATOM      1  C   UNL     1       0.000  -0.020   0.912  0.00  0.00    +0.117 A 
ATOM      2  C   UNL     1      -1.200  -0.016   0.217  0.00  0.00    +0.045 A 
ATOM      3  C   UNL     1      -1.198   0.007  -1.163  0.00  0.00    +0.004 A 
ATOM      4  C   UNL     1       0.000   0.013  -1.854  0.00  0.00    +0.000 A 
ATOM      5  C   UNL     1       1.198   0.004  -1.163  0.00  0.00    +0.004 A 
ATOM      6  C   UNL     1       1.200  -0.013   0.217  0.00  0.00    +0.045 A 
ENDROOT
BRANCH   1   7
ATOM      7  O   UNL     1       0.000  -0.037   2.271  0.00  0.00    -0.507 OA
ATOM      8  H   UNL     1       0.000   0.884   2.562  0.00  0.00    +0.292 HD
ENDBRANCH   1   7
TORSDOF 1
