MODEL 1
REMARK VINA RESULT:      -2.9      0.000      0.000
REMARK  Name = TBU
REMARK  4 active torsions:
REMARK  status: ('A' for Active; 'I' for Inactive)
REMARK    1  A    between atoms: O_1  and  C_2
REMARK    2  A    between atoms: C_2  and  C_3
REMARK    3  A    between atoms: C_2  and  C_4
REMARK    4  A    between atoms: C_2  and  C_5
REMARK                            x       y       z     vdW  Elec       q    Type
REMARK                         _______ _______ _______ _____ _____    ______ ____
ROOT
ATOM      1  C   UNL     1      -6.962  29.965  52.212  0.00  0.00    +0.058 C 
ATOM      2  C   UNL     1      -7.716  31.261  52.513  0.00  0.00    +0.041 C 
ATOM      3  C   UNL     1      -5.645  29.948  52.991  0.00  0.00    +0.041 C 
ATOM      4  C   UNL     1      -7.818  28.768  52.633  0.00  0.00    +0.041 C 
ENDROOT
BRANCH   1   5
ATOM      5  O   UNL     1      -6.689  29.886  50.812  0.00  0.00    -0.389 OA
ATOM      6  H   UNL     1      -7.238  29.245  50.340  0.00  0.00    +0.210 HD
ENDBRANCH   1   5
TORSDOF 1
ENDMDL
MODEL 2
REMARK VINA RESULT:      -2.9      0.119      1.899
REMARK  Name = TBU
REMARK  4 active torsions:
REMARK  status: ('A' for Active; 'I' for Inactive)
REMARK    1  A    between atoms: O_1  and  C_2
REMARK    2  A    between atoms: C_2  and  C_3
REMARK    3  A    between atoms: C_2  and  C_4
REMARK    4  A    between atoms: C_2  and  C_5
REMARK                            x       y       z     vdW  Elec       q    Type
REMARK                         _______ _______ _______ _____ _____    ______ ____
ROOT
ATOM      1  C   UNL     1      -6.895  29.926  52.249  0.00  0.00    +0.058 C 
ATOM      2  C   UNL     1      -7.818  28.768  52.634  0.00  0.00    +0.041 C 
ATOM      3  C   UNL     1      -7.565  31.253  52.609  0.00  0.00    +0.041 C 
ATOM      4  C   UNL     1      -5.574  29.798  53.010  0.00  0.00    +0.041 C 
ENDROOT
BRANCH   1   5
ATOM      5  O   UNL     1      -6.641  29.886  50.843  0.00  0.00    -0.389 OA
ATOM      6  H   UNL     1      -6.393  29.012  50.513  0.00  0.00    +0.210 HD
ENDBRANCH   1   5
TORSDOF 1
ENDMDL
MODEL 3
REMARK VINA RESULT:      -2.9     11.393     12.257
REMARK  Name = TBU
REMARK  4 active torsions:
REMARK  status: ('A' for Active; 'I' for Inactive)
REMARK    1  A    between atoms: O_1  and  C_2
REMARK    2  A    between atoms: C_2  and  C_3
REMARK    3  A    between atoms: C_2  and  C_4
REMARK    4  A    between atoms: C_2  and  C_5
REMARK                            x       y       z     vdW  Elec       q    Type
REMARK                         _______ _______ _______ _____ _____    ______ ____
ROOT
ATOM      1  C   UNL     1       3.741  25.589  48.857  0.00  0.00    +0.058 C 
ATOM      2  C   UNL     1       2.775  26.340  47.939  0.00  0.00    +0.041 C 
ATOM      3  C   UNL     1       3.701  24.095  48.526  0.00  0.00    +0.041 C 
ATOM      4  C   UNL     1       5.161  26.119  48.645  0.00  0.00    +0.041 C 
ENDROOT
BRANCH   1   5
ATOM      5  O   UNL     1       3.356  25.786  50.218  0.00  0.00    -0.389 OA
ATOM      6  H   UNL     1       2.993  26.663  50.401  0.00  0.00    +0.210 HD
ENDBRANCH   1   5
TORSDOF 1
ENDMDL
MODEL 4
REMARK VINA RESULT:      -2.8     11.818     12.196
REMARK  Name = TBU
REMARK  4 active torsions:
REMARK  status: ('A' for Active; 'I' for Inactive)
REMARK    1  A    between atoms: O_1  and  C_2
REMARK    2  A    between atoms: C_2  and  C_3
REMARK    3  A    between atoms: C_2  and  C_4
REMARK    4  A    between atoms: C_2  and  C_5
REMARK                            x       y       z     vdW  Elec       q    Type
REMARK                         _______ _______ _______ _____ _____    ______ ____
ROOT
ATOM      1  C   UNL     1      -4.734  30.443  40.471  0.00  0.00    +0.058 C 
ATOM      2  C   UNL     1      -3.314  29.992  40.121  0.00  0.00    +0.041 C 
ATOM      3  C   UNL     1      -5.188  31.514  39.476  0.00  0.00    +0.041 C 
ATOM      4  C   UNL     1      -5.682  29.244  40.397  0.00  0.00    +0.041 C 
ENDROOT
BRANCH   1   5
ATOM      5  O   UNL     1      -4.750  30.983  41.794  0.00  0.00    -0.389 OA
ATOM      6  H   UNL     1      -5.203  31.834  41.865  0.00  0.00    +0.210 HD
ENDBRANCH   1   5
TORSDOF 1
ENDMDL
MODEL 5
REMARK VINA RESULT:      -2.8     11.910     12.270
REMARK  Name = TBU
REMARK  4 active torsions:
REMARK  status: ('A' for Active; 'I' for Inactive)
REMARK    1  A    between atoms: O_1  and  C_2
REMARK    2  A    between atoms: C_2  and  C_3
REMARK    3  A    between atoms: C_2  and  C_4
REMARK    4  A    between atoms: C_2  and  C_5
REMARK                            x       y       z     vdW  Elec       q    Type
REMARK                         _______ _______ _______ _____ _____    ______ ____
ROOT
ATOM      1  C   UNL     1      -4.520  30.591  40.444  0.00  0.00    +0.058 C 
ATOM      2  C   UNL     1      -4.981  31.700  39.495  0.00  0.00    +0.041 C 
ATOM      3  C   UNL     1      -5.273  29.299  40.120  0.00  0.00    +0.041 C 
ATOM      4  C   UNL     1      -3.018  30.363  40.269  0.00  0.00    +0.041 C 
ENDROOT
BRANCH   1   5
ATOM      5  O   UNL     1      -4.791  30.976  41.793  0.00  0.00    -0.389 OA
ATOM      6  H   UNL     1      -4.634  30.275  42.440  0.00  0.00    +0.210 HD
ENDBRANCH   1   5
TORSDOF 1
ENDMDL
MODEL 6
REMARK VINA RESULT:      -2.8     11.909     12.268
REMARK  Name = TBU
REMARK  4 active torsions:
REMARK  status: ('A' for Active; 'I' for Inactive)
REMARK    1  A    between atoms: O_1  and  C_2
REMARK    2  A    between atoms: C_2  and  C_3
REMARK    3  A    between atoms: C_2  and  C_4
REMARK    4  A    between atoms: C_2  and  C_5
REMARK                            x       y       z     vdW  Elec       q    Type
REMARK                         _______ _______ _______ _____ _____    ______ ____
ROOT
ATOM      1  C   UNL     1      -4.500  30.608  40.449  0.00  0.00    +0.058 C 
ATOM      2  C   UNL     1      -5.265  29.337  40.073  0.00  0.00    +0.041 C 
ATOM      3  C   UNL     1      -2.996  30.349  40.333  0.00  0.00    +0.041 C 
ATOM      4  C   UNL     1      -4.897  31.741  39.501  0.00  0.00    +0.041 C 
ENDROOT
BRANCH   1   5
ATOM      5  O   UNL     1      -4.818  30.976  41.792  0.00  0.00    -0.389 OA
ATOM      6  H   UNL     1      -4.210  31.621  42.178  0.00  0.00    +0.210 HD
ENDBRANCH   1   5
TORSDOF 1
ENDMDL
MODEL 7
REMARK VINA RESULT:      -2.7     22.338     22.646
REMARK  Name = TBU
REMARK  4 active torsions:
REMARK  status: ('A' for Active; 'I' for Inactive)
REMARK    1  A    between atoms: O_1  and  C_2
REMARK    2  A    between atoms: C_2  and  C_3
REMARK    3  A    between atoms: C_2  and  C_4
REMARK    4  A    between atoms: C_2  and  C_5
REMARK                            x       y       z     vdW  Elec       q    Type
REMARK                         _______ _______ _______ _____ _____    ______ ____
ROOT
ATOM      1  C   UNL     1       9.271  31.619  36.709  0.00  0.00    +0.058 C 
ATOM      2  C   UNL     1      10.729  31.224  36.467  0.00  0.00    +0.041 C 
ATOM      3  C   UNL     1       9.157  33.145  36.756  0.00  0.00    +0.041 C 
ATOM      4  C   UNL     1       8.401  31.078  35.573  0.00  0.00    +0.041 C 
ENDROOT
BRANCH   1   5
ATOM      5  O   UNL     1       8.829  31.070  37.952  0.00  0.00    -0.389 OA
ATOM      6  H   UNL     1       9.105  31.577  38.727  0.00  0.00    +0.210 HD
ENDBRANCH   1   5
TORSDOF 1
ENDMDL
MODEL 8
REMARK VINA RESULT:      -2.7      5.808      6.574
REMARK  Name = TBU
REMARK  4 active torsions:
REMARK  status: ('A' for Active; 'I' for Inactive)
REMARK    1  A    between atoms: O_1  and  C_2
REMARK    2  A    between atoms: C_2  and  C_3
REMARK    3  A    between atoms: C_2  and  C_4
REMARK    4  A    between atoms: C_2  and  C_5
REMARK                            x       y       z     vdW  Elec       q    Type
REMARK                         _______ _______ _______ _____ _____    ______ ____
ROOT
ATOM      1  C   UNL     1      -1.762  31.672  49.368  0.00  0.00    +0.058 C 
ATOM      2  C   UNL     1      -0.860  30.594  49.970  0.00  0.00    +0.041 C 
ATOM      3  C   UNL     1      -2.146  32.681  50.453  0.00  0.00    +0.041 C 
ATOM      4  C   UNL     1      -1.015  32.393  48.244  0.00  0.00    +0.041 C 
ENDROOT
BRANCH   1   5
ATOM      5  O   UNL     1      -2.944  31.066  48.841  0.00  0.00    -0.389 OA
ATOM      6  H   UNL     1      -2.775  30.412  48.150  0.00  0.00    +0.210 HD
ENDBRANCH   1   5
TORSDOF 1
ENDMDL
MODEL 9
REMARK VINA RESULT:      -2.7     12.242     12.627
REMARK  Name = TBU
REMARK  4 active torsions:
REMARK  status: ('A' for Active; 'I' for Inactive)
REMARK    1  A    between atoms: O_1  and  C_2
REMARK    2  A    between atoms: C_2  and  C_3
REMARK    3  A    between atoms: C_2  and  C_4
REMARK    4  A    between atoms: C_2  and  C_5
REMARK                            x       y       z     vdW  Elec       q    Type
REMARK                         _______ _______ _______ _____ _____    ______ ____
ROOT
ATOM      1  C   UNL     1      -4.694  29.720  39.957  0.00  0.00    +0.058 C 
ATOM      2  C   UNL     1      -3.995  30.581  41.011  0.00  0.00    +0.041 C 
ATOM      3  C   UNL     1      -5.909  29.034  40.583  0.00  0.00    +0.041 C 
ATOM      4  C   UNL     1      -5.151  30.607  38.797  0.00  0.00    +0.041 C 
ENDROOT
BRANCH   1   5
ATOM      5  O   UNL     1      -3.785  28.730  39.471  0.00  0.00    -0.389 OA
ATOM      6  H   UNL     1      -3.230  29.032  38.739  0.00  0.00    +0.210 HD
ENDBRANCH   1   5
TORSDOF 1
ENDMDL
