MODEL 1
REMARK VINA RESULT:      -3.1      0.000      0.000
REMARK  Name = URE
REMARK  0 active torsions:
REMARK  status: ('A' for Active; 'I' for Inactive)
REMARK                            x       y       z     vdW  Elec       q    Type
REMARK                         _______ _______ _______ _____ _____    ______ ____
ROOT
ATOM      1  C   UNL     1       3.068  25.449  48.706  0.00  0.00    +0.294 C 
ATOM      2  N   UNL     1       2.905  26.456  47.826  0.00  0.00    -0.314 N 
ATOM      3  H   UNL     1       3.126  27.365  48.084  0.00  0.00    +0.146 HD
ATOM      4  H   UNL     1       2.567  26.273  46.936  0.00  0.00    +0.146 HD
ATOM      5  N   UNL     1       3.538  25.704  49.943  0.00  0.00    -0.314 N 
ATOM      6  H   UNL     1       3.761  26.612  50.199  0.00  0.00    +0.146 HD
ATOM      7  H   UNL     1       3.655  24.978  50.576  0.00  0.00    +0.146 HD
ATOM      8  O   UNL     1       2.791  24.311  48.384  0.00  0.00    -0.253 OA
ENDROOT
TORSDOF 0
ENDMDL
MODEL 2
REMARK VINA RESULT:      -3.0      7.790      8.128
REMARK  Name = URE
REMARK  0 active torsions:
REMARK  status: ('A' for Active; 'I' for Inactive)
REMARK                            x       y       z     vdW  Elec       q    Type
REMARK                         _______ _______ _______ _____ _____    ______ ____
ROOT
ATOM      1  C   UNL     1       3.392  24.936  40.698  0.00  0.00    +0.294 C 
ATOM      2  N   UNL     1       4.674  24.532  40.618  0.00  0.00    -0.314 N 
ATOM      3  H   UNL     1       5.292  24.735  41.338  0.00  0.00    +0.146 HD
ATOM      4  H   UNL     1       4.981  24.040  39.840  0.00  0.00    +0.146 HD
ATOM      5  N   UNL     1       2.966  25.620  41.778  0.00  0.00    -0.314 N 
ATOM      6  H   UNL     1       3.582  25.819  42.499  0.00  0.00    +0.146 HD
ATOM      7  H   UNL     1       2.042  25.910  41.835  0.00  0.00    +0.146 HD
ATOM      8  O   UNL     1       2.618  24.683  39.796  0.00  0.00    -0.253 OA
ENDROOT
TORSDOF 0
ENDMDL
MODEL 3
REMARK VINA RESULT:      -3.0      6.857      7.242
REMARK  Name = URE
REMARK  0 active torsions:
REMARK  status: ('A' for Active; 'I' for Inactive)
REMARK                            x       y       z     vdW  Elec       q    Type
REMARK                         _______ _______ _______ _____ _____    ______ ____
ROOT
ATOM      1  C   UNL     1       3.698  24.800  41.722  0.00  0.00    +0.294 C 
ATOM      2  N   UNL     1       4.088  24.521  42.981  0.00  0.00    -0.314 N 
ATOM      3  H   UNL     1       3.704  25.009  43.726  0.00  0.00    +0.146 HD
ATOM      4  H   UNL     1       4.752  23.832  43.142  0.00  0.00    +0.146 HD
ATOM      5  N   UNL     1       2.776  25.756  41.497  0.00  0.00    -0.314 N 
ATOM      6  H   UNL     1       2.391  26.242  42.243  0.00  0.00    +0.146 HD
ATOM      7  H   UNL     1       2.496  25.957  40.591  0.00  0.00    +0.146 HD
ATOM      8  O   UNL     1       4.178  24.189  40.788  0.00  0.00    -0.253 OA
ENDROOT
TORSDOF 0
ENDMDL
MODEL 4
REMARK VINA RESULT:      -2.9      2.473      2.704
REMARK  Name = URE
REMARK  0 active torsions:
REMARK  status: ('A' for Active; 'I' for Inactive)
REMARK                            x       y       z     vdW  Elec       q    Type
REMARK                         _______ _______ _______ _____ _____    ______ ____
ROOT
ATOM      1  C   UNL     1       4.317  26.464  47.414  0.00  0.00    +0.294 C 
ATOM      2  N   UNL     1       4.692  25.664  46.397  0.00  0.00    -0.314 N 
ATOM      3  H   UNL     1       4.062  25.029  46.023  0.00  0.00    +0.146 HD
ATOM      4  H   UNL     1       5.591  25.723  46.039  0.00  0.00    +0.146 HD
ATOM      5  N   UNL     1       3.068  26.382  47.912  0.00  0.00    -0.314 N 
ATOM      6  H   UNL     1       2.437  25.749  47.536  0.00  0.00    +0.146 HD
ATOM      7  H   UNL     1       2.799  26.958  48.644  0.00  0.00    +0.146 HD
ATOM      8  O   UNL     1       5.106  27.260  47.883  0.00  0.00    -0.253 OA
ENDROOT
TORSDOF 0
ENDMDL
MODEL 5
REMARK VINA RESULT:      -2.9      8.970      9.491
REMARK  Name = URE
REMARK  0 active torsions:
REMARK  status: ('A' for Active; 'I' for Inactive)
REMARK                            x       y       z     vdW  Elec       q    Type
REMARK                         _______ _______ _______ _____ _____    ______ ____
ROOT
ATOM      1  C   UNL     1       3.880  24.656  39.466  0.00  0.00    +0.294 C 
ATOM      2  N   UNL     1       4.727  25.446  40.153  0.00  0.00    -0.314 N 
ATOM      3  H   UNL     1       5.670  25.458  39.926  0.00  0.00    +0.146 HD
ATOM      4  H   UNL     1       4.395  26.002  40.875  0.00  0.00    +0.146 HD
ATOM      5  N   UNL     1       4.341  23.883  38.464  0.00  0.00    -0.314 N 
ATOM      6  H   UNL     1       5.283  23.897  38.235  0.00  0.00    +0.146 HD
ATOM      7  H   UNL     1       3.730  23.314  37.969  0.00  0.00    +0.146 HD
ATOM      8  O   UNL     1       2.699  24.640  39.751  0.00  0.00    -0.253 OA
ENDROOT
TORSDOF 0
ENDMDL
MODEL 6
REMARK VINA RESULT:      -2.8     11.446     11.485
REMARK  Name = URE
REMARK  0 active torsions:
REMARK  status: ('A' for Active; 'I' for Inactive)
REMARK                            x       y       z     vdW  Elec       q    Type
REMARK                         _______ _______ _______ _____ _____    ______ ____
ROOT
ATOM      1  C   UNL     1      -3.521  30.152  40.810  0.00  0.00    +0.294 C 
ATOM      2  N   UNL     1      -4.684  30.695  41.217  0.00  0.00    -0.314 N 
ATOM      3  H   UNL     1      -5.460  30.670  40.636  0.00  0.00    +0.146 HD
ATOM      4  H   UNL     1      -4.746  31.112  42.091  0.00  0.00    +0.146 HD
ATOM      5  N   UNL     1      -3.434  29.573  39.596  0.00  0.00    -0.314 N 
ATOM      6  H   UNL     1      -4.211  29.545  39.016  0.00  0.00    +0.146 HD
ATOM      7  H   UNL     1      -2.597  29.182  39.304  0.00  0.00    +0.146 HD
ATOM      8  O   UNL     1      -2.548  30.183  41.538  0.00  0.00    -0.253 OA
ENDROOT
TORSDOF 0
ENDMDL
MODEL 7
REMARK VINA RESULT:      -2.8     11.446     11.446
REMARK  Name = URE
REMARK  0 active torsions:
REMARK  status: ('A' for Active; 'I' for Inactive)
REMARK                            x       y       z     vdW  Elec       q    Type
REMARK                         _______ _______ _______ _____ _____    ______ ____
ROOT
ATOM      1  C   UNL     1      -3.521  30.152  40.810  0.00  0.00    +0.294 C 
ATOM      2  N   UNL     1      -3.434  29.573  39.596  0.00  0.00    -0.314 N 
ATOM      3  H   UNL     1      -4.211  29.548  39.015  0.00  0.00    +0.146 HD
ATOM      4  H   UNL     1      -2.596  29.182  39.304  0.00  0.00    +0.146 HD
ATOM      5  N   UNL     1      -4.684  30.695  41.217  0.00  0.00    -0.314 N 
ATOM      6  H   UNL     1      -5.460  30.672  40.635  0.00  0.00    +0.146 HD
ATOM      7  H   UNL     1      -4.746  31.112  42.091  0.00  0.00    +0.146 HD
ATOM      8  O   UNL     1      -2.548  30.183  41.538  0.00  0.00    -0.253 OA
ENDROOT
TORSDOF 0
ENDMDL
MODEL 8
REMARK VINA RESULT:      -2.7     14.461     14.888
REMARK  Name = URE
REMARK  0 active torsions:
REMARK  status: ('A' for Active; 'I' for Inactive)
REMARK                            x       y       z     vdW  Elec       q    Type
REMARK                         _______ _______ _______ _____ _____    ______ ____
ROOT
ATOM      1  C   UNL     1       8.606  29.561  35.563  0.00  0.00    +0.294 C 
ATOM      2  N   UNL     1       7.856  29.862  34.486  0.00  0.00    -0.314 N 
ATOM      3  H   UNL     1       6.930  29.575  34.445  0.00  0.00    +0.146 HD
ATOM      4  H   UNL     1       8.241  30.365  33.751  0.00  0.00    +0.146 HD
ATOM      5  N   UNL     1       8.072  28.862  36.584  0.00  0.00    -0.314 N 
ATOM      6  H   UNL     1       7.146  28.578  36.544  0.00  0.00    +0.146 HD
ATOM      7  H   UNL     1       8.613  28.646  37.360  0.00  0.00    +0.146 HD
ATOM      8  O   UNL     1       9.766  29.920  35.615  0.00  0.00    -0.253 OA
ENDROOT
TORSDOF 0
ENDMDL
MODEL 9
REMARK VINA RESULT:      -2.6     12.754     12.754
REMARK  Name = URE
REMARK  0 active torsions:
REMARK  status: ('A' for Active; 'I' for Inactive)
REMARK                            x       y       z     vdW  Elec       q    Type
REMARK                         _______ _______ _______ _____ _____    ______ ____
ROOT
ATOM      1  C   UNL     1      -5.945  29.526  40.751  0.00  0.00    +0.294 C 
ATOM      2  N   UNL     1      -5.564  30.789  40.479  0.00  0.00    -0.314 N 
ATOM      3  H   UNL     1      -6.090  31.535  40.807  0.00  0.00    +0.146 HD
ATOM      4  H   UNL     1      -4.764  30.952  39.955  0.00  0.00    +0.146 HD
ATOM      5  N   UNL     1      -7.056  29.298  41.479  0.00  0.00    -0.314 N 
ATOM      6  H   UNL     1      -7.580  30.044  41.810  0.00  0.00    +0.146 HD
ATOM      7  H   UNL     1      -7.329  28.388  41.675  0.00  0.00    +0.146 HD
ATOM      8  O   UNL     1      -5.286  28.591  40.340  0.00  0.00    -0.253 OA
ENDROOT
TORSDOF 0
ENDMDL
